*SPEF "IEEE 1481-1999"
*DESIGN "LMFE_1"
*DATE "Tue Nov 29 15:26:05 2016"
*VENDOR "SYNOPSYS INC"
*PROGRAM "Synopsys Design Compiler cmos"
*VERSION "K-2015.06-SP1"
*DESIGN_FLOW "SYNTHESIS"
*DIVIDER /
*DELIMITER :
*BUS_DELIMITER []
*T_UNIT 1.0 NS
*C_UNIT 1.0 PF
*R_UNIT 1.0 KOHM
*L_UNIT 1.0 HENRY

*PORTS

clk I *L 0.000e+00 *S 0.000e+00 0.000e+00 
reset I *L 0.000e+00 *S 0.000e+00 0.000e+00 
Din\[7\] I *L 0.000e+00 *S 0.000e+00 0.000e+00 
Din\[6\] I *L 0.000e+00 *S 0.000e+00 0.000e+00 
Din\[5\] I *L 0.000e+00 *S 0.000e+00 0.000e+00 
Din\[4\] I *L 0.000e+00 *S 0.000e+00 0.000e+00 
Din\[3\] I *L 0.000e+00 *S 0.000e+00 0.000e+00 
Din\[2\] I *L 0.000e+00 *S 0.000e+00 0.000e+00 
Din\[1\] I *L 0.000e+00 *S 0.000e+00 0.000e+00 
Din\[0\] I *L 0.000e+00 *S 0.000e+00 0.000e+00 
in_en I *L 0.000e+00 *S 0.000e+00 0.000e+00 
busy O *L 0.000e+00 *S 1.855e-01 1.419e-01 
out_valid O *L 0.000e+00 *S 0.000e+00 0.000e+00 
Dout\[7\] O *L 0.000e+00 *S 8.252e-02 8.073e-02 
Dout\[6\] O *L 0.000e+00 *S 8.627e-02 8.402e-02 
Dout\[5\] O *L 0.000e+00 *S 8.322e-02 8.135e-02 
Dout\[4\] O *L 0.000e+00 *S 7.290e-02 7.232e-02 
Dout\[3\] O *L 0.000e+00 *S 8.357e-02 8.166e-02 
Dout\[2\] O *L 0.000e+00 *S 7.625e-02 7.525e-02 
Dout\[1\] O *L 0.000e+00 *S 6.985e-02 6.965e-02 
Dout\[0\] O *L 0.000e+00 *S 5.913e-02 6.028e-02 

*R_NET clk 6.461e-01
*DRIVER clk
*CELL NULL
*C2_R1_C1 3.230e-01 0.000e+00 3.230e-01 
*LOADS
*RC out_valid_reg:CK 0.000e+00
*RC colori_reg\[2\]:CK 0.000e+00
*RC winx_reg\[1\]:CK 0.000e+00
*RC winx_reg\[2\]:CK 0.000e+00
*RC halt_reg:CK 0.000e+00
*RC state_reg\[0\]:CK 0.000e+00
*RC count_reg\[0\]:CK 0.000e+00
*RC state_reg\[1\]:CK 0.000e+00
*RC count_reg\[1\]:CK 0.000e+00
*RC count_reg\[2\]:CK 0.000e+00
*RC count_reg\[4\]:CK 0.000e+00
*RC count_reg\[5\]:CK 0.000e+00
*RC count_reg\[3\]:CK 0.000e+00
*RC colori_reg\[1\]:CK 0.000e+00
*RC colori_reg\[0\]:CK 0.000e+00
*RC Raddr_reg\[0\]:CK 0.000e+00
*RC Waddr_reg\[0\]:CK 0.000e+00
*RC Raddrmod_reg\[0\]:CK 0.000e+00
*RC winx_reg\[7\]:CK 0.000e+00
*RC winx_reg\[6\]:CK 0.000e+00
*RC winx_reg\[5\]:CK 0.000e+00
*RC winx_reg\[4\]:CK 0.000e+00
*RC winx_reg\[3\]:CK 0.000e+00
*RC winx_reg\[0\]:CK 0.000e+00
*RC Raddr_reg\[1\]:CK 0.000e+00
*RC Waddr_reg\[1\]:CK 0.000e+00
*RC Raddrmod_reg\[1\]:CK 0.000e+00
*RC colori_reg\[4\]:CK 0.000e+00
*RC color_reg\[7\]\[3\]:CK 0.000e+00
*RC colori_reg\[3\]:CK 0.000e+00
*RC color_reg\[6\]\[1\]:CK 0.000e+00
*RC color_reg\[47\]\[1\]:CK 0.000e+00
*RC color_reg\[7\]\[2\]:CK 0.000e+00
*RC color_reg\[5\]\[1\]:CK 0.000e+00
*RC color_reg\[6\]\[3\]:CK 0.000e+00
*RC color_reg\[6\]\[5\]:CK 0.000e+00
*RC color_reg\[22\]\[3\]:CK 0.000e+00
*RC color_reg\[3\]\[3\]:CK 0.000e+00
*RC color_reg\[9\]\[3\]:CK 0.000e+00
*RC color_reg\[11\]\[3\]:CK 0.000e+00
*RC color_reg\[13\]\[3\]:CK 0.000e+00
*RC color_reg\[15\]\[3\]:CK 0.000e+00
*RC color_reg\[17\]\[3\]:CK 0.000e+00
*RC color_reg\[19\]\[3\]:CK 0.000e+00
*RC color_reg\[21\]\[3\]:CK 0.000e+00
*RC color_reg\[23\]\[3\]:CK 0.000e+00
*RC color_reg\[24\]\[3\]:CK 0.000e+00
*RC color_reg\[25\]\[3\]:CK 0.000e+00
*RC color_reg\[26\]\[3\]:CK 0.000e+00
*RC color_reg\[27\]\[3\]:CK 0.000e+00
*RC color_reg\[28\]\[3\]:CK 0.000e+00
*RC color_reg\[29\]\[3\]:CK 0.000e+00
*RC color_reg\[30\]\[3\]:CK 0.000e+00
*RC color_reg\[31\]\[3\]:CK 0.000e+00
*RC color_reg\[32\]\[3\]:CK 0.000e+00
*RC color_reg\[33\]\[3\]:CK 0.000e+00
*RC color_reg\[34\]\[3\]:CK 0.000e+00
*RC color_reg\[35\]\[3\]:CK 0.000e+00
*RC color_reg\[36\]\[3\]:CK 0.000e+00
*RC color_reg\[37\]\[3\]:CK 0.000e+00
*RC color_reg\[38\]\[3\]:CK 0.000e+00
*RC color_reg\[39\]\[3\]:CK 0.000e+00
*RC color_reg\[40\]\[3\]:CK 0.000e+00
*RC color_reg\[41\]\[3\]:CK 0.000e+00
*RC color_reg\[42\]\[3\]:CK 0.000e+00
*RC color_reg\[43\]\[3\]:CK 0.000e+00
*RC color_reg\[46\]\[3\]:CK 0.000e+00
*RC color_reg\[6\]\[2\]:CK 0.000e+00
*RC color_reg\[5\]\[3\]:CK 0.000e+00
*RC color_reg\[44\]\[3\]:CK 0.000e+00
*RC color_reg\[45\]\[3\]:CK 0.000e+00
*RC color_reg\[5\]\[5\]:CK 0.000e+00
*RC color_reg\[1\]\[3\]:CK 0.000e+00
*RC color_reg\[7\]\[4\]:CK 0.000e+00
*RC color_reg\[2\]\[3\]:CK 0.000e+00
*RC color_reg\[4\]\[3\]:CK 0.000e+00
*RC color_reg\[10\]\[3\]:CK 0.000e+00
*RC color_reg\[12\]\[3\]:CK 0.000e+00
*RC color_reg\[14\]\[3\]:CK 0.000e+00
*RC color_reg\[16\]\[3\]:CK 0.000e+00
*RC color_reg\[18\]\[3\]:CK 0.000e+00
*RC color_reg\[20\]\[3\]:CK 0.000e+00
*RC color_reg\[8\]\[3\]:CK 0.000e+00
*RC color_reg\[47\]\[2\]:CK 0.000e+00
*RC color_reg\[22\]\[2\]:CK 0.000e+00
*RC color_reg\[46\]\[2\]:CK 0.000e+00
*RC color_reg\[43\]\[2\]:CK 0.000e+00
*RC color_reg\[42\]\[2\]:CK 0.000e+00
*RC color_reg\[41\]\[2\]:CK 0.000e+00
*RC color_reg\[40\]\[2\]:CK 0.000e+00
*RC color_reg\[39\]\[2\]:CK 0.000e+00
*RC color_reg\[38\]\[2\]:CK 0.000e+00
*RC color_reg\[37\]\[2\]:CK 0.000e+00
*RC color_reg\[36\]\[2\]:CK 0.000e+00
*RC color_reg\[35\]\[2\]:CK 0.000e+00
*RC color_reg\[34\]\[2\]:CK 0.000e+00
*RC color_reg\[33\]\[2\]:CK 0.000e+00
*RC color_reg\[32\]\[2\]:CK 0.000e+00
*RC color_reg\[31\]\[2\]:CK 0.000e+00
*RC color_reg\[30\]\[2\]:CK 0.000e+00
*RC color_reg\[29\]\[2\]:CK 0.000e+00
*RC color_reg\[28\]\[2\]:CK 0.000e+00
*RC color_reg\[27\]\[2\]:CK 0.000e+00
*RC color_reg\[26\]\[2\]:CK 0.000e+00
*RC color_reg\[25\]\[2\]:CK 0.000e+00
*RC color_reg\[24\]\[2\]:CK 0.000e+00
*RC color_reg\[23\]\[2\]:CK 0.000e+00
*RC color_reg\[21\]\[2\]:CK 0.000e+00
*RC color_reg\[19\]\[2\]:CK 0.000e+00
*RC color_reg\[17\]\[2\]:CK 0.000e+00
*RC color_reg\[15\]\[2\]:CK 0.000e+00
*RC color_reg\[13\]\[2\]:CK 0.000e+00
*RC color_reg\[11\]\[2\]:CK 0.000e+00
*RC color_reg\[9\]\[2\]:CK 0.000e+00
*RC color_reg\[3\]\[2\]:CK 0.000e+00
*RC color_reg\[45\]\[2\]:CK 0.000e+00
*RC color_reg\[44\]\[2\]:CK 0.000e+00
*RC color_reg\[5\]\[2\]:CK 0.000e+00
*RC color_reg\[6\]\[4\]:CK 0.000e+00
*RC color_reg\[20\]\[2\]:CK 0.000e+00
*RC color_reg\[18\]\[2\]:CK 0.000e+00
*RC color_reg\[16\]\[2\]:CK 0.000e+00
*RC color_reg\[14\]\[2\]:CK 0.000e+00
*RC color_reg\[12\]\[2\]:CK 0.000e+00
*RC color_reg\[10\]\[2\]:CK 0.000e+00
*RC color_reg\[4\]\[2\]:CK 0.000e+00
*RC color_reg\[2\]\[2\]:CK 0.000e+00
*RC color_reg\[8\]\[2\]:CK 0.000e+00
*RC color_reg\[22\]\[1\]:CK 0.000e+00
*RC color_reg\[47\]\[4\]:CK 0.000e+00
*RC color_reg\[3\]\[1\]:CK 0.000e+00
*RC color_reg\[9\]\[1\]:CK 0.000e+00
*RC color_reg\[11\]\[1\]:CK 0.000e+00
*RC color_reg\[13\]\[1\]:CK 0.000e+00
*RC color_reg\[15\]\[1\]:CK 0.000e+00
*RC color_reg\[17\]\[1\]:CK 0.000e+00
*RC color_reg\[19\]\[1\]:CK 0.000e+00
*RC color_reg\[21\]\[1\]:CK 0.000e+00
*RC color_reg\[23\]\[1\]:CK 0.000e+00
*RC color_reg\[24\]\[1\]:CK 0.000e+00
*RC color_reg\[25\]\[1\]:CK 0.000e+00
*RC color_reg\[26\]\[1\]:CK 0.000e+00
*RC color_reg\[27\]\[1\]:CK 0.000e+00
*RC color_reg\[28\]\[1\]:CK 0.000e+00
*RC color_reg\[29\]\[1\]:CK 0.000e+00
*RC color_reg\[30\]\[1\]:CK 0.000e+00
*RC color_reg\[31\]\[1\]:CK 0.000e+00
*RC color_reg\[32\]\[1\]:CK 0.000e+00
*RC color_reg\[33\]\[1\]:CK 0.000e+00
*RC color_reg\[34\]\[1\]:CK 0.000e+00
*RC color_reg\[35\]\[1\]:CK 0.000e+00
*RC color_reg\[36\]\[1\]:CK 0.000e+00
*RC color_reg\[37\]\[1\]:CK 0.000e+00
*RC color_reg\[38\]\[1\]:CK 0.000e+00
*RC color_reg\[39\]\[1\]:CK 0.000e+00
*RC color_reg\[40\]\[1\]:CK 0.000e+00
*RC color_reg\[41\]\[1\]:CK 0.000e+00
*RC color_reg\[42\]\[1\]:CK 0.000e+00
*RC color_reg\[43\]\[1\]:CK 0.000e+00
*RC color_reg\[46\]\[1\]:CK 0.000e+00
*RC color_reg\[44\]\[1\]:CK 0.000e+00
*RC color_reg\[45\]\[1\]:CK 0.000e+00
*RC color_reg\[22\]\[4\]:CK 0.000e+00
*RC color_reg\[0\]\[2\]:CK 0.000e+00
*RC color_reg\[38\]\[4\]:CK 0.000e+00
*RC color_reg\[37\]\[4\]:CK 0.000e+00
*RC color_reg\[36\]\[4\]:CK 0.000e+00
*RC color_reg\[35\]\[4\]:CK 0.000e+00
*RC color_reg\[34\]\[4\]:CK 0.000e+00
*RC color_reg\[33\]\[4\]:CK 0.000e+00
*RC color_reg\[32\]\[4\]:CK 0.000e+00
*RC color_reg\[31\]\[4\]:CK 0.000e+00
*RC color_reg\[30\]\[4\]:CK 0.000e+00
*RC color_reg\[29\]\[4\]:CK 0.000e+00
*RC color_reg\[28\]\[4\]:CK 0.000e+00
*RC color_reg\[27\]\[4\]:CK 0.000e+00
*RC color_reg\[26\]\[4\]:CK 0.000e+00
*RC color_reg\[25\]\[4\]:CK 0.000e+00
*RC color_reg\[24\]\[4\]:CK 0.000e+00
*RC color_reg\[23\]\[4\]:CK 0.000e+00
*RC color_reg\[21\]\[4\]:CK 0.000e+00
*RC color_reg\[19\]\[4\]:CK 0.000e+00
*RC color_reg\[17\]\[4\]:CK 0.000e+00
*RC color_reg\[15\]\[4\]:CK 0.000e+00
*RC color_reg\[13\]\[4\]:CK 0.000e+00
*RC color_reg\[11\]\[4\]:CK 0.000e+00
*RC color_reg\[9\]\[4\]:CK 0.000e+00
*RC color_reg\[3\]\[4\]:CK 0.000e+00
*RC color_reg\[40\]\[4\]:CK 0.000e+00
*RC color_reg\[39\]\[4\]:CK 0.000e+00
*RC color_reg\[5\]\[4\]:CK 0.000e+00
*RC color_reg\[2\]\[1\]:CK 0.000e+00
*RC color_reg\[4\]\[1\]:CK 0.000e+00
*RC color_reg\[10\]\[1\]:CK 0.000e+00
*RC color_reg\[12\]\[1\]:CK 0.000e+00
*RC color_reg\[14\]\[1\]:CK 0.000e+00
*RC color_reg\[16\]\[1\]:CK 0.000e+00
*RC color_reg\[18\]\[1\]:CK 0.000e+00
*RC color_reg\[20\]\[1\]:CK 0.000e+00
*RC color_reg\[46\]\[4\]:CK 0.000e+00
*RC color_reg\[20\]\[4\]:CK 0.000e+00
*RC color_reg\[18\]\[4\]:CK 0.000e+00
*RC color_reg\[16\]\[4\]:CK 0.000e+00
*RC color_reg\[14\]\[4\]:CK 0.000e+00
*RC color_reg\[12\]\[4\]:CK 0.000e+00
*RC color_reg\[10\]\[4\]:CK 0.000e+00
*RC color_reg\[4\]\[4\]:CK 0.000e+00
*RC color_reg\[2\]\[4\]:CK 0.000e+00
*RC color_reg\[43\]\[4\]:CK 0.000e+00
*RC color_reg\[42\]\[4\]:CK 0.000e+00
*RC color_reg\[41\]\[4\]:CK 0.000e+00
*RC color_reg\[8\]\[4\]:CK 0.000e+00
*RC color_reg\[47\]\[3\]:CK 0.000e+00
*RC color_reg\[8\]\[1\]:CK 0.000e+00
*RC color_reg\[45\]\[4\]:CK 0.000e+00
*RC color_reg\[44\]\[4\]:CK 0.000e+00
*RC colori_reg\[7\]:CK 0.000e+00
*RC color_reg\[1\]\[1\]:CK 0.000e+00
*RC colori_reg\[6\]:CK 0.000e+00
*RC color_reg\[48\]\[2\]:CK 0.000e+00
*RC color_reg\[1\]\[4\]:CK 0.000e+00
*RC color_reg\[48\]\[3\]:CK 0.000e+00
*RC color_reg\[7\]\[1\]:CK 0.000e+00
*RC color_reg\[0\]\[3\]:CK 0.000e+00
*RC color_reg\[48\]\[4\]:CK 0.000e+00
*RC colori_reg\[5\]:CK 0.000e+00
*RC color_reg\[7\]\[0\]:CK 0.000e+00
*RC color_reg\[6\]\[0\]:CK 0.000e+00
*RC color_reg\[48\]\[1\]:CK 0.000e+00
*RC color_reg\[1\]\[2\]:CK 0.000e+00
*RC color_reg\[47\]\[0\]:CK 0.000e+00
*RC color_reg\[43\]\[0\]:CK 0.000e+00
*RC color_reg\[41\]\[0\]:CK 0.000e+00
*RC color_reg\[39\]\[0\]:CK 0.000e+00
*RC color_reg\[37\]\[0\]:CK 0.000e+00
*RC color_reg\[35\]\[0\]:CK 0.000e+00
*RC color_reg\[33\]\[0\]:CK 0.000e+00
*RC color_reg\[31\]\[0\]:CK 0.000e+00
*RC color_reg\[29\]\[0\]:CK 0.000e+00
*RC color_reg\[27\]\[0\]:CK 0.000e+00
*RC color_reg\[25\]\[0\]:CK 0.000e+00
*RC color_reg\[45\]\[0\]:CK 0.000e+00
*RC color_reg\[48\]\[0\]:CK 0.000e+00
*RC Raddr_reg\[7\]:CK 0.000e+00
*RC posx_reg\[0\]:CK 0.000e+00
*RC posy_reg\[0\]:CK 0.000e+00
*RC winx_reg\[8\]:CK 0.000e+00
*RC posy_reg\[3\]:CK 0.000e+00
*RC posy_reg\[1\]:CK 0.000e+00
*RC posy_reg\[2\]:CK 0.000e+00
*RC posy_reg\[4\]:CK 0.000e+00
*RC posx_reg\[3\]:CK 0.000e+00
*RC posy_reg\[5\]:CK 0.000e+00
*RC posy_reg\[6\]:CK 0.000e+00
*RC posx_reg\[5\]:CK 0.000e+00
*RC posx_reg\[4\]:CK 0.000e+00
*RC posx_reg\[6\]:CK 0.000e+00
*RC Raddr_reg\[8\]:CK 0.000e+00
*RC posx_reg\[2\]:CK 0.000e+00
*RC posx_reg\[1\]:CK 0.000e+00
*RC Raddr_reg\[6\]:CK 0.000e+00
*RC Raddr_reg\[5\]:CK 0.000e+00
*RC Raddr_reg\[4\]:CK 0.000e+00
*RC Raddr_reg\[3\]:CK 0.000e+00
*RC Raddr_reg\[2\]:CK 0.000e+00
*RC Waddr_reg\[6\]:CK 0.000e+00
*RC Waddr_reg\[5\]:CK 0.000e+00
*RC Waddr_reg\[4\]:CK 0.000e+00
*RC Waddr_reg\[3\]:CK 0.000e+00
*RC Waddr_reg\[2\]:CK 0.000e+00
*RC Raddrmod_reg\[5\]:CK 0.000e+00
*RC Raddrmod_reg\[4\]:CK 0.000e+00
*RC Raddrmod_reg\[3\]:CK 0.000e+00
*RC Raddrmod_reg\[2\]:CK 0.000e+00
*RC winx_reg\[9\]:CK 0.000e+00
*RC color_reg\[7\]\[7\]:CK 0.000e+00
*RC color_reg\[7\]\[5\]:CK 0.000e+00
*RC color_reg\[7\]\[6\]:CK 0.000e+00
*RC color_reg\[6\]\[7\]:CK 0.000e+00
*RC color_reg\[6\]\[6\]:CK 0.000e+00
*RC color_reg\[1\]\[5\]:CK 0.000e+00
*RC color_reg\[1\]\[7\]:CK 0.000e+00
*RC color_reg\[47\]\[7\]:CK 0.000e+00
*RC color_reg\[47\]\[5\]:CK 0.000e+00
*RC color_reg\[2\]\[7\]:CK 0.000e+00
*RC color_reg\[22\]\[5\]:CK 0.000e+00
*RC color_reg\[1\]\[6\]:CK 0.000e+00
*RC color_reg\[47\]\[6\]:CK 0.000e+00
*RC color_reg\[3\]\[7\]:CK 0.000e+00
*RC color_reg\[8\]\[7\]:CK 0.000e+00
*RC color_reg\[46\]\[7\]:CK 0.000e+00
*RC color_reg\[3\]\[5\]:CK 0.000e+00
*RC color_reg\[9\]\[5\]:CK 0.000e+00
*RC color_reg\[11\]\[5\]:CK 0.000e+00
*RC color_reg\[13\]\[5\]:CK 0.000e+00
*RC color_reg\[15\]\[5\]:CK 0.000e+00
*RC color_reg\[17\]\[5\]:CK 0.000e+00
*RC color_reg\[19\]\[5\]:CK 0.000e+00
*RC color_reg\[21\]\[5\]:CK 0.000e+00
*RC color_reg\[23\]\[5\]:CK 0.000e+00
*RC color_reg\[24\]\[5\]:CK 0.000e+00
*RC color_reg\[25\]\[5\]:CK 0.000e+00
*RC color_reg\[26\]\[5\]:CK 0.000e+00
*RC color_reg\[27\]\[5\]:CK 0.000e+00
*RC color_reg\[28\]\[5\]:CK 0.000e+00
*RC color_reg\[29\]\[5\]:CK 0.000e+00
*RC color_reg\[30\]\[5\]:CK 0.000e+00
*RC color_reg\[31\]\[5\]:CK 0.000e+00
*RC color_reg\[32\]\[5\]:CK 0.000e+00
*RC color_reg\[33\]\[5\]:CK 0.000e+00
*RC color_reg\[34\]\[5\]:CK 0.000e+00
*RC color_reg\[35\]\[5\]:CK 0.000e+00
*RC color_reg\[36\]\[5\]:CK 0.000e+00
*RC color_reg\[37\]\[5\]:CK 0.000e+00
*RC color_reg\[38\]\[5\]:CK 0.000e+00
*RC color_reg\[39\]\[5\]:CK 0.000e+00
*RC color_reg\[40\]\[5\]:CK 0.000e+00
*RC color_reg\[41\]\[5\]:CK 0.000e+00
*RC color_reg\[42\]\[5\]:CK 0.000e+00
*RC color_reg\[43\]\[5\]:CK 0.000e+00
*RC color_reg\[46\]\[5\]:CK 0.000e+00
*RC color_reg\[5\]\[7\]:CK 0.000e+00
*RC color_reg\[9\]\[7\]:CK 0.000e+00
*RC color_reg\[17\]\[7\]:CK 0.000e+00
*RC color_reg\[44\]\[5\]:CK 0.000e+00
*RC color_reg\[45\]\[5\]:CK 0.000e+00
*RC color_reg\[22\]\[6\]:CK 0.000e+00
*RC color_reg\[2\]\[6\]:CK 0.000e+00
*RC color_reg\[46\]\[6\]:CK 0.000e+00
*RC color_reg\[38\]\[6\]:CK 0.000e+00
*RC color_reg\[37\]\[6\]:CK 0.000e+00
*RC color_reg\[36\]\[6\]:CK 0.000e+00
*RC color_reg\[35\]\[6\]:CK 0.000e+00
*RC color_reg\[34\]\[6\]:CK 0.000e+00
*RC color_reg\[33\]\[6\]:CK 0.000e+00
*RC color_reg\[32\]\[6\]:CK 0.000e+00
*RC color_reg\[31\]\[6\]:CK 0.000e+00
*RC color_reg\[30\]\[6\]:CK 0.000e+00
*RC color_reg\[29\]\[6\]:CK 0.000e+00
*RC color_reg\[28\]\[6\]:CK 0.000e+00
*RC color_reg\[27\]\[6\]:CK 0.000e+00
*RC color_reg\[26\]\[6\]:CK 0.000e+00
*RC color_reg\[25\]\[6\]:CK 0.000e+00
*RC color_reg\[24\]\[6\]:CK 0.000e+00
*RC color_reg\[23\]\[6\]:CK 0.000e+00
*RC color_reg\[21\]\[6\]:CK 0.000e+00
*RC color_reg\[19\]\[6\]:CK 0.000e+00
*RC color_reg\[17\]\[6\]:CK 0.000e+00
*RC color_reg\[15\]\[6\]:CK 0.000e+00
*RC color_reg\[13\]\[6\]:CK 0.000e+00
*RC color_reg\[11\]\[6\]:CK 0.000e+00
*RC color_reg\[9\]\[6\]:CK 0.000e+00
*RC color_reg\[3\]\[6\]:CK 0.000e+00
*RC color_reg\[40\]\[6\]:CK 0.000e+00
*RC color_reg\[39\]\[6\]:CK 0.000e+00
*RC color_reg\[5\]\[6\]:CK 0.000e+00
*RC color_reg\[4\]\[7\]:CK 0.000e+00
*RC color_reg\[15\]\[7\]:CK 0.000e+00
*RC color_reg\[16\]\[7\]:CK 0.000e+00
*RC color_reg\[23\]\[7\]:CK 0.000e+00
*RC color_reg\[31\]\[7\]:CK 0.000e+00
*RC color_reg\[39\]\[7\]:CK 0.000e+00
*RC color_reg\[2\]\[5\]:CK 0.000e+00
*RC color_reg\[4\]\[5\]:CK 0.000e+00
*RC color_reg\[10\]\[5\]:CK 0.000e+00
*RC color_reg\[12\]\[5\]:CK 0.000e+00
*RC color_reg\[14\]\[5\]:CK 0.000e+00
*RC color_reg\[16\]\[5\]:CK 0.000e+00
*RC color_reg\[18\]\[5\]:CK 0.000e+00
*RC color_reg\[20\]\[5\]:CK 0.000e+00
*RC color_reg\[10\]\[7\]:CK 0.000e+00
*RC color_reg\[11\]\[7\]:CK 0.000e+00
*RC color_reg\[12\]\[7\]:CK 0.000e+00
*RC color_reg\[13\]\[7\]:CK 0.000e+00
*RC color_reg\[14\]\[7\]:CK 0.000e+00
*RC color_reg\[18\]\[7\]:CK 0.000e+00
*RC color_reg\[19\]\[7\]:CK 0.000e+00
*RC color_reg\[20\]\[7\]:CK 0.000e+00
*RC color_reg\[21\]\[7\]:CK 0.000e+00
*RC color_reg\[22\]\[7\]:CK 0.000e+00
*RC color_reg\[24\]\[7\]:CK 0.000e+00
*RC color_reg\[25\]\[7\]:CK 0.000e+00
*RC color_reg\[26\]\[7\]:CK 0.000e+00
*RC color_reg\[27\]\[7\]:CK 0.000e+00
*RC color_reg\[28\]\[7\]:CK 0.000e+00
*RC color_reg\[29\]\[7\]:CK 0.000e+00
*RC color_reg\[30\]\[7\]:CK 0.000e+00
*RC color_reg\[32\]\[7\]:CK 0.000e+00
*RC color_reg\[33\]\[7\]:CK 0.000e+00
*RC color_reg\[34\]\[7\]:CK 0.000e+00
*RC color_reg\[35\]\[7\]:CK 0.000e+00
*RC color_reg\[36\]\[7\]:CK 0.000e+00
*RC color_reg\[37\]\[7\]:CK 0.000e+00
*RC color_reg\[38\]\[7\]:CK 0.000e+00
*RC color_reg\[40\]\[7\]:CK 0.000e+00
*RC color_reg\[41\]\[7\]:CK 0.000e+00
*RC color_reg\[42\]\[7\]:CK 0.000e+00
*RC color_reg\[43\]\[7\]:CK 0.000e+00
*RC color_reg\[45\]\[7\]:CK 0.000e+00
*RC color_reg\[8\]\[5\]:CK 0.000e+00
*RC color_reg\[20\]\[6\]:CK 0.000e+00
*RC color_reg\[18\]\[6\]:CK 0.000e+00
*RC color_reg\[16\]\[6\]:CK 0.000e+00
*RC color_reg\[14\]\[6\]:CK 0.000e+00
*RC color_reg\[12\]\[6\]:CK 0.000e+00
*RC color_reg\[10\]\[6\]:CK 0.000e+00
*RC color_reg\[4\]\[6\]:CK 0.000e+00
*RC color_reg\[43\]\[6\]:CK 0.000e+00
*RC color_reg\[42\]\[6\]:CK 0.000e+00
*RC color_reg\[41\]\[6\]:CK 0.000e+00
*RC color_reg\[8\]\[6\]:CK 0.000e+00
*RC color_reg\[44\]\[7\]:CK 0.000e+00
*RC color_reg\[45\]\[6\]:CK 0.000e+00
*RC color_reg\[44\]\[6\]:CK 0.000e+00
*RC color_reg\[0\]\[5\]:CK 0.000e+00
*RC color_reg\[48\]\[6\]:CK 0.000e+00
*RC color_reg\[0\]\[7\]:CK 0.000e+00
*RC color_reg\[0\]\[4\]:CK 0.000e+00
*RC color_reg\[0\]\[1\]:CK 0.000e+00
*RC posy_reg\[7\]:CK 0.000e+00
*RC color_reg\[1\]\[0\]:CK 0.000e+00
*RC color_reg\[48\]\[7\]:CK 0.000e+00
*RC color_reg\[48\]\[5\]:CK 0.000e+00
*RC color_reg\[22\]\[0\]:CK 0.000e+00
*RC color_reg\[46\]\[0\]:CK 0.000e+00
*RC color_reg\[42\]\[0\]:CK 0.000e+00
*RC color_reg\[40\]\[0\]:CK 0.000e+00
*RC color_reg\[38\]\[0\]:CK 0.000e+00
*RC color_reg\[36\]\[0\]:CK 0.000e+00
*RC color_reg\[34\]\[0\]:CK 0.000e+00
*RC color_reg\[32\]\[0\]:CK 0.000e+00
*RC color_reg\[30\]\[0\]:CK 0.000e+00
*RC color_reg\[28\]\[0\]:CK 0.000e+00
*RC color_reg\[26\]\[0\]:CK 0.000e+00
*RC color_reg\[24\]\[0\]:CK 0.000e+00
*RC color_reg\[23\]\[0\]:CK 0.000e+00
*RC color_reg\[21\]\[0\]:CK 0.000e+00
*RC color_reg\[19\]\[0\]:CK 0.000e+00
*RC color_reg\[17\]\[0\]:CK 0.000e+00
*RC color_reg\[15\]\[0\]:CK 0.000e+00
*RC color_reg\[13\]\[0\]:CK 0.000e+00
*RC color_reg\[11\]\[0\]:CK 0.000e+00
*RC color_reg\[9\]\[0\]:CK 0.000e+00
*RC color_reg\[5\]\[0\]:CK 0.000e+00
*RC color_reg\[3\]\[0\]:CK 0.000e+00
*RC color_reg\[44\]\[0\]:CK 0.000e+00
*RC color_reg\[0\]\[6\]:CK 0.000e+00
*RC color_reg\[20\]\[0\]:CK 0.000e+00
*RC color_reg\[18\]\[0\]:CK 0.000e+00
*RC color_reg\[16\]\[0\]:CK 0.000e+00
*RC color_reg\[14\]\[0\]:CK 0.000e+00
*RC color_reg\[12\]\[0\]:CK 0.000e+00
*RC color_reg\[10\]\[0\]:CK 0.000e+00
*RC color_reg\[4\]\[0\]:CK 0.000e+00
*RC color_reg\[2\]\[0\]:CK 0.000e+00
*RC Waddr_reg\[9\]:CK 0.000e+00
*RC Waddr_reg\[7\]:CK 0.000e+00
*RC color_reg\[8\]\[0\]:CK 0.000e+00
*RC Waddr_reg\[8\]:CK 0.000e+00
*RC Raddrmod_reg\[7\]:CK 0.000e+00
*RC Raddrmod_reg\[6\]:CK 0.000e+00
*RC Raddrmod_reg\[9\]:CK 0.000e+00
*RC Raddrmod_reg\[8\]:CK 0.000e+00
*RC posx_reg\[7\]:CK 0.000e+00
*RC Raddr_reg\[9\]:CK 0.000e+00
*RC color_reg\[0\]\[0\]:CK 0.000e+00
*RC ram1:CLK 0.000e+00
*END

*R_NET reset 2.497e-03
*DRIVER reset
*CELL NULL
*C2_R1_C1 1.248e-03 0.000e+00 1.248e-03 
*LOADS
*RC U1780:A 0.000e+00
*END

*R_NET Din\[7\] 1.112e-03
*DRIVER Din\[7\]
*CELL NULL
*C2_R1_C1 5.560e-04 0.000e+00 5.560e-04 
*LOADS
*RC U3532:AN 0.000e+00
*END

*R_NET Din\[6\] 1.112e-03
*DRIVER Din\[6\]
*CELL NULL
*C2_R1_C1 5.560e-04 0.000e+00 5.560e-04 
*LOADS
*RC U3533:AN 0.000e+00
*END

*R_NET Din\[5\] 1.112e-03
*DRIVER Din\[5\]
*CELL NULL
*C2_R1_C1 5.560e-04 0.000e+00 5.560e-04 
*LOADS
*RC U3534:AN 0.000e+00
*END

*R_NET Din\[4\] 1.112e-03
*DRIVER Din\[4\]
*CELL NULL
*C2_R1_C1 5.560e-04 0.000e+00 5.560e-04 
*LOADS
*RC U3535:AN 0.000e+00
*END

*R_NET Din\[3\] 1.112e-03
*DRIVER Din\[3\]
*CELL NULL
*C2_R1_C1 5.560e-04 0.000e+00 5.560e-04 
*LOADS
*RC U3536:AN 0.000e+00
*END

*R_NET Din\[2\] 1.112e-03
*DRIVER Din\[2\]
*CELL NULL
*C2_R1_C1 5.560e-04 0.000e+00 5.560e-04 
*LOADS
*RC U3537:AN 0.000e+00
*END

*R_NET Din\[1\] 1.112e-03
*DRIVER Din\[1\]
*CELL NULL
*C2_R1_C1 5.560e-04 0.000e+00 5.560e-04 
*LOADS
*RC U3538:AN 0.000e+00
*END

*R_NET Din\[0\] 1.112e-03
*DRIVER Din\[0\]
*CELL NULL
*C2_R1_C1 5.560e-04 0.000e+00 5.560e-04 
*LOADS
*RC U3539:AN 0.000e+00
*END

*R_NET out_valid 0.000e+00
*DRIVER out_valid_reg:Q
*CELL DFFRX1
*C2_R1_C1 0.000e+00 0.000e+00 0.000e+00 
*LOADS
*RC out_valid 0.000e+00
*END

*R_NET Dout\[7\] 8.574e-03
*DRIVER color_reg\[24\]\[7\]:Q
*CELL DFFRX1
*C2_R1_C1 4.287e-03 0.000e+00 4.287e-03 
*LOADS
*RC Dout\[7\] 0.000e+00
*RC U2972:B 0.000e+00
*RC U2958:A1 0.000e+00
*RC U2934:B1 0.000e+00
*END

*R_NET Dout\[6\] 9.011e-03
*DRIVER color_reg\[24\]\[6\]:Q
*CELL DFFRX1
*C2_R1_C1 4.506e-03 0.000e+00 4.506e-03 
*LOADS
*RC Dout\[6\] 0.000e+00
*RC U2940:A1 0.000e+00
*RC U2939:B 0.000e+00
*RC U2505:B1 0.000e+00
*END

*R_NET Dout\[5\] 8.656e-03
*DRIVER color_reg\[24\]\[5\]:Q
*CELL DFFRX1
*C2_R1_C1 4.328e-03 0.000e+00 4.328e-03 
*LOADS
*RC Dout\[5\] 0.000e+00
*RC U2966:B 0.000e+00
*RC U2961:A1 0.000e+00
*RC U2410:B1 0.000e+00
*END

*R_NET Dout\[4\] 7.454e-03
*DRIVER color_reg\[24\]\[4\]:Q
*CELL DFFRX1
*C2_R1_C1 3.727e-03 0.000e+00 3.727e-03 
*LOADS
*RC Dout\[4\] 0.000e+00
*RC U2944:A0N 0.000e+00
*RC U2942:B 0.000e+00
*RC U2312:B1 0.000e+00
*END

*R_NET Dout\[3\] 8.697e-03
*DRIVER color_reg\[24\]\[3\]:Q
*CELL DFFRX1
*C2_R1_C1 4.348e-03 0.000e+00 4.348e-03 
*LOADS
*RC Dout\[3\] 0.000e+00
*RC U2969:B 0.000e+00
*RC U2948:B0 0.000e+00
*RC U2213:B1 0.000e+00
*END

*R_NET Dout\[2\] 7.844e-03
*DRIVER color_reg\[24\]\[2\]:Q
*CELL DFFRX1
*C2_R1_C1 3.922e-03 0.000e+00 3.922e-03 
*LOADS
*RC Dout\[2\] 0.000e+00
*RC U2948:A1 0.000e+00
*RC U2945:A1 0.000e+00
*RC U2112:B1 0.000e+00
*END

*R_NET Dout\[1\] 7.099e-03
*DRIVER color_reg\[24\]\[1\]:Q
*CELL DFFRX1
*C2_R1_C1 3.549e-03 0.000e+00 3.549e-03 
*LOADS
*RC Dout\[1\] 0.000e+00
*RC U2951:B 0.000e+00
*RC U2950:A0N 0.000e+00
*RC U2011:B1 0.000e+00
*END

*R_NET Dout\[0\] 5.852e-03
*DRIVER color_reg\[24\]\[0\]:Q
*CELL DFFRX1
*C2_R1_C1 2.926e-03 0.000e+00 2.926e-03 
*LOADS
*RC Dout\[0\] 0.000e+00
*RC U2970:B1 0.000e+00
*RC U1908:B1 0.000e+00
*END

*R_NET Mout\[7\] 1.956e-02
*DRIVER ram1:Q\[7\]
*CELL sram_1024x8_t13
*C2_R1_C1 9.781e-03 0.000e+00 9.781e-03 
*LOADS
*RC U2577:A 0.000e+00
*RC U2652:A 0.000e+00
*RC U2802:A 0.000e+00
*RC U2953:A 0.000e+00
*RC U3086:A 0.000e+00
*RC U3237:A 0.000e+00
*RC U3381:A 0.000e+00
*END

*R_NET Mout\[6\] 1.696e-02
*DRIVER ram1:Q\[6\]
*CELL sram_1024x8_t13
*C2_R1_C1 8.478e-03 0.000e+00 8.478e-03 
*LOADS
*RC U2486:A 0.000e+00
*RC U2503:A 0.000e+00
*RC U2520:B 0.000e+00
*RC U2537:B 0.000e+00
*RC U3403:A 0.000e+00
*RC U3405:A 0.000e+00
*RC U3409:A 0.000e+00
*END

*R_NET Mout\[5\] 1.565e-02
*DRIVER ram1:Q\[5\]
*CELL sram_1024x8_t13
*C2_R1_C1 7.827e-03 0.000e+00 7.827e-03 
*LOADS
*RC U2366:A 0.000e+00
*RC U2377:B 0.000e+00
*RC U2394:B 0.000e+00
*RC U2411:B 0.000e+00
*RC U2428:A 0.000e+00
*RC U2445:A 0.000e+00
*RC U3432:A 0.000e+00
*END

*R_NET Mout\[4\] 1.696e-02
*DRIVER ram1:Q\[4\]
*CELL sram_1024x8_t13
*C2_R1_C1 8.478e-03 0.000e+00 8.478e-03 
*LOADS
*RC U2293:A 0.000e+00
*RC U2310:A 0.000e+00
*RC U2327:B 0.000e+00
*RC U2344:B 0.000e+00
*RC U3454:A 0.000e+00
*RC U3458:A 0.000e+00
*RC U3460:A 0.000e+00
*END

*R_NET Mout\[3\] 1.565e-02
*DRIVER ram1:Q\[3\]
*CELL sram_1024x8_t13
*C2_R1_C1 7.827e-03 0.000e+00 7.827e-03 
*LOADS
*RC U2167:A 0.000e+00
*RC U2180:B 0.000e+00
*RC U2197:B 0.000e+00
*RC U2214:B 0.000e+00
*RC U2231:A 0.000e+00
*RC U2248:A 0.000e+00
*RC U3462:A 0.000e+00
*END

*R_NET Mout\[2\] 1.565e-02
*DRIVER ram1:Q\[2\]
*CELL sram_1024x8_t13
*C2_R1_C1 7.827e-03 0.000e+00 7.827e-03 
*LOADS
*RC U2093:A 0.000e+00
*RC U2110:A 0.000e+00
*RC U2127:B 0.000e+00
*RC U2144:B 0.000e+00
*RC U2161:B 0.000e+00
*RC U3482:A 0.000e+00
*RC U3510:A 0.000e+00
*END

*R_NET Mout\[1\] 1.565e-02
*DRIVER ram1:Q\[1\]
*CELL sram_1024x8_t13
*C2_R1_C1 7.827e-03 0.000e+00 7.827e-03 
*LOADS
*RC U1963:A 0.000e+00
*RC U1978:B 0.000e+00
*RC U1995:B 0.000e+00
*RC U2012:B 0.000e+00
*RC U2029:A 0.000e+00
*RC U2046:A 0.000e+00
*RC U2062:A 0.000e+00
*END

*R_NET Mout\[0\] 1.513e-02
*DRIVER ram1:Q\[0\]
*CELL sram_1024x8_t13
*C2_R1_C1 7.567e-03 0.000e+00 7.567e-03 
*LOADS
*RC U1872:A 0.000e+00
*RC U1889:B 0.000e+00
*RC U1906:B 0.000e+00
*RC U1923:B 0.000e+00
*RC U1940:B 0.000e+00
*RC U1957:B 0.000e+00
*RC U1959:A 0.000e+00
*END

*R_NET addr\[9\] 2.000e-02
*DRIVER U3522:Y
*CELL MXI2X1
*C2_R1_C1 1.000e-02 0.000e+00 1.000e-02 
*LOADS
*RC ram1:A\[9\] 0.000e+00
*END

*R_NET addr\[8\] 2.000e-02
*DRIVER U3523:Y
*CELL MXI2X1
*C2_R1_C1 1.000e-02 0.000e+00 1.000e-02 
*LOADS
*RC ram1:A\[8\] 0.000e+00
*END

*R_NET addr\[7\] 2.000e-02
*DRIVER U3524:Y
*CELL MXI2X1
*C2_R1_C1 1.000e-02 0.000e+00 1.000e-02 
*LOADS
*RC ram1:A\[7\] 0.000e+00
*END

*R_NET addr\[6\] 2.000e-02
*DRIVER U3525:Y
*CELL MXI2X1
*C2_R1_C1 1.000e-02 0.000e+00 1.000e-02 
*LOADS
*RC ram1:A\[6\] 0.000e+00
*END

*R_NET addr\[5\] 2.000e-02
*DRIVER U3526:Y
*CELL MXI2X1
*C2_R1_C1 1.000e-02 0.000e+00 1.000e-02 
*LOADS
*RC ram1:A\[5\] 0.000e+00
*END

*R_NET addr\[4\] 2.000e-02
*DRIVER U3527:Y
*CELL MXI2X1
*C2_R1_C1 1.000e-02 0.000e+00 1.000e-02 
*LOADS
*RC ram1:A\[4\] 0.000e+00
*END

*R_NET addr\[3\] 2.000e-02
*DRIVER U3528:Y
*CELL MXI2X1
*C2_R1_C1 1.000e-02 0.000e+00 1.000e-02 
*LOADS
*RC ram1:A\[3\] 0.000e+00
*END

*R_NET addr\[2\] 2.000e-02
*DRIVER U3529:Y
*CELL MXI2X1
*C2_R1_C1 1.000e-02 0.000e+00 1.000e-02 
*LOADS
*RC ram1:A\[2\] 0.000e+00
*END

*R_NET addr\[1\] 2.000e-02
*DRIVER U3530:Y
*CELL MXI2X1
*C2_R1_C1 1.000e-02 0.000e+00 1.000e-02 
*LOADS
*RC ram1:A\[1\] 0.000e+00
*END

*R_NET addr\[0\] 2.000e-02
*DRIVER U3531:Y
*CELL MXI2X1
*C2_R1_C1 1.000e-02 0.000e+00 1.000e-02 
*LOADS
*RC ram1:A\[0\] 0.000e+00
*END

*R_NET Min\[7\] 1.000e-03
*DRIVER U3532:Y
*CELL NOR2BX1
*C2_R1_C1 5.000e-04 0.000e+00 5.000e-04 
*LOADS
*RC ram1:D\[7\] 0.000e+00
*END

*R_NET Min\[6\] 1.000e-03
*DRIVER U3533:Y
*CELL NOR2BX1
*C2_R1_C1 5.000e-04 0.000e+00 5.000e-04 
*LOADS
*RC ram1:D\[6\] 0.000e+00
*END

*R_NET Min\[5\] 1.000e-03
*DRIVER U3534:Y
*CELL NOR2BX1
*C2_R1_C1 5.000e-04 0.000e+00 5.000e-04 
*LOADS
*RC ram1:D\[5\] 0.000e+00
*END

*R_NET Min\[4\] 1.000e-03
*DRIVER U3535:Y
*CELL NOR2BX1
*C2_R1_C1 5.000e-04 0.000e+00 5.000e-04 
*LOADS
*RC ram1:D\[4\] 0.000e+00
*END

*R_NET Min\[3\] 1.000e-03
*DRIVER U3536:Y
*CELL NOR2BX1
*C2_R1_C1 5.000e-04 0.000e+00 5.000e-04 
*LOADS
*RC ram1:D\[3\] 0.000e+00
*END

*R_NET Min\[2\] 1.000e-03
*DRIVER U3537:Y
*CELL NOR2BX1
*C2_R1_C1 5.000e-04 0.000e+00 5.000e-04 
*LOADS
*RC ram1:D\[2\] 0.000e+00
*END

*R_NET Min\[1\] 1.000e-03
*DRIVER U3538:Y
*CELL NOR2BX1
*C2_R1_C1 5.000e-04 0.000e+00 5.000e-04 
*LOADS
*RC ram1:D\[1\] 0.000e+00
*END

*R_NET Min\[0\] 1.000e-03
*DRIVER U3539:Y
*CELL NOR2BX1
*C2_R1_C1 5.000e-04 0.000e+00 5.000e-04 
*LOADS
*RC ram1:D\[0\] 0.000e+00
*END

*R_NET Waddr\[9\] 2.915e-03
*DRIVER Waddr_reg\[9\]:Q
*CELL DFFRX1
*C2_R1_C1 1.458e-03 0.000e+00 1.458e-03 
*LOADS
*RC r551/U2:B 0.000e+00
*END

*R_NET Waddr\[8\] 2.199e-03
*DRIVER Waddr_reg\[8\]:Q
*CELL DFFRX1
*C2_R1_C1 1.099e-03 0.000e+00 1.099e-03 
*LOADS
*RC r551/U1_1_8:A 0.000e+00
*END

*R_NET Waddr\[7\] 2.199e-03
*DRIVER Waddr_reg\[7\]:Q
*CELL DFFRX1
*C2_R1_C1 1.099e-03 0.000e+00 1.099e-03 
*LOADS
*RC r551/U1_1_7:A 0.000e+00
*END

*R_NET Waddr\[6\] 2.199e-03
*DRIVER Waddr_reg\[6\]:Q
*CELL DFFRX1
*C2_R1_C1 1.099e-03 0.000e+00 1.099e-03 
*LOADS
*RC r551/U1_1_6:A 0.000e+00
*END

*R_NET Waddr\[5\] 2.199e-03
*DRIVER Waddr_reg\[5\]:Q
*CELL DFFRX1
*C2_R1_C1 1.099e-03 0.000e+00 1.099e-03 
*LOADS
*RC r551/U1_1_5:A 0.000e+00
*END

*R_NET Waddr\[4\] 2.199e-03
*DRIVER Waddr_reg\[4\]:Q
*CELL DFFRX1
*C2_R1_C1 1.099e-03 0.000e+00 1.099e-03 
*LOADS
*RC r551/U1_1_4:A 0.000e+00
*END

*R_NET Waddr\[3\] 2.199e-03
*DRIVER Waddr_reg\[3\]:Q
*CELL DFFRX1
*C2_R1_C1 1.099e-03 0.000e+00 1.099e-03 
*LOADS
*RC r551/U1_1_3:A 0.000e+00
*END

*R_NET Waddr\[2\] 2.199e-03
*DRIVER Waddr_reg\[2\]:Q
*CELL DFFRX1
*C2_R1_C1 1.099e-03 0.000e+00 1.099e-03 
*LOADS
*RC r551/U1_1_2:A 0.000e+00
*END

*R_NET Waddr\[1\] 2.199e-03
*DRIVER Waddr_reg\[1\]:Q
*CELL DFFRX1
*C2_R1_C1 1.099e-03 0.000e+00 1.099e-03 
*LOADS
*RC r551/U1_1_1:A 0.000e+00
*END

*R_NET Waddr\[0\] 6.056e-03
*DRIVER Waddr_reg\[0\]:Q
*CELL DFFRX1
*C2_R1_C1 3.028e-03 0.000e+00 3.028e-03 
*LOADS
*RC r551/U1_1_1:B 0.000e+00
*RC r551/U1:A 0.000e+00
*END

*R_NET Raddr\[9\] 5.975e-03
*DRIVER Raddr_reg\[9\]:Q
*CELL DFFRX1
*C2_R1_C1 2.988e-03 0.000e+00 2.988e-03 
*LOADS
*RC U1696:A 0.000e+00
*RC add_125_3/U2:B 0.000e+00
*END

*R_NET Raddr\[8\] 6.801e-03
*DRIVER Raddr_reg\[8\]:Q
*CELL DFFRX1
*C2_R1_C1 3.400e-03 0.000e+00 3.400e-03 
*LOADS
*RC U1697:B 0.000e+00
*RC U1698:A 0.000e+00
*RC add_125_3/U1_1_8:A 0.000e+00
*END

*R_NET Raddr\[7\] 6.441e-03
*DRIVER Raddr_reg\[7\]:Q
*CELL DFFRX1
*C2_R1_C1 3.220e-03 0.000e+00 3.220e-03 
*LOADS
*RC U1697:A 0.000e+00
*RC U1698:B 0.000e+00
*RC add_125_3/U1_1_7:A 0.000e+00
*END

*R_NET winx\[9\] 1.406e-02
*DRIVER winx_reg\[9\]:Q
*CELL DFFRX1
*C2_R1_C1 7.029e-03 0.000e+00 7.029e-03 
*LOADS
*RC U1699:B 0.000e+00
*RC U1700:A 0.000e+00
*RC U1724:B0 0.000e+00
*RC U1852:C 0.000e+00
*RC add_137/U1:B 0.000e+00
*END

*R_NET winx\[8\] 1.315e-02
*DRIVER winx_reg\[8\]:Q
*CELL DFFRX1
*C2_R1_C1 6.573e-03 0.000e+00 6.573e-03 
*LOADS
*RC U1701:B 0.000e+00
*RC U1702:A 0.000e+00
*RC U1726:B0 0.000e+00
*RC U1852:D 0.000e+00
*RC add_137/U1_1_8:A 0.000e+00
*END

*R_NET winx\[7\] 1.333e-02
*DRIVER winx_reg\[7\]:Q
*CELL DFFRX1
*C2_R1_C1 6.665e-03 0.000e+00 6.665e-03 
*LOADS
*RC U1703:B 0.000e+00
*RC U1704:A 0.000e+00
*RC U1728:B0 0.000e+00
*RC U1852:B 0.000e+00
*RC add_137/U1_1_7:A 0.000e+00
*END

*R_NET winx\[6\] 1.295e-02
*DRIVER winx_reg\[6\]:Q
*CELL DFFRX1
*C2_R1_C1 6.477e-03 0.000e+00 6.477e-03 
*LOADS
*RC U1705:B 0.000e+00
*RC U1706:A 0.000e+00
*RC U1730:B1 0.000e+00
*RC U1851:A 0.000e+00
*RC add_137/U1_1_6:A 0.000e+00
*END

*R_NET winx\[5\] 1.292e-02
*DRIVER winx_reg\[5\]:Q
*CELL DFFRX1
*C2_R1_C1 6.460e-03 0.000e+00 6.460e-03 
*LOADS
*RC U1707:B 0.000e+00
*RC U1708:A 0.000e+00
*RC U1732:B1 0.000e+00
*RC U1851:B 0.000e+00
*RC add_137/U1_1_5:A 0.000e+00
*END

*R_NET winx\[4\] 9.768e-03
*DRIVER winx_reg\[4\]:Q
*CELL DFFRX1
*C2_R1_C1 4.884e-03 0.000e+00 4.884e-03 
*LOADS
*RC U1709:B 0.000e+00
*RC U1710:A 0.000e+00
*RC U1734:B1 0.000e+00
*RC add_137/U1_1_4:A 0.000e+00
*END

*R_NET winx\[3\] 9.768e-03
*DRIVER winx_reg\[3\]:Q
*CELL DFFRX1
*C2_R1_C1 4.884e-03 0.000e+00 4.884e-03 
*LOADS
*RC U1711:B 0.000e+00
*RC U1712:A 0.000e+00
*RC U1736:B1 0.000e+00
*RC add_137/U1_1_3:A 0.000e+00
*END
