*SPEF "IEEE 1481-1999"
*DESIGN "LMFE"
*DATE "Thu Dec  1 15:20:57 2016"
*VENDOR "SYNOPSYS INC"
*PROGRAM "Synopsys Design Compiler cmos"
*VERSION "K-2015.06-SP1"
*DESIGN_FLOW "SYNTHESIS"
*DIVIDER /
*DELIMITER :
*BUS_DELIMITER []
*T_UNIT 1.0 NS
*C_UNIT 1.0 PF
*R_UNIT 1.0 KOHM
*L_UNIT 1.0 HENRY

*PORTS

clk I *L 0.000e+00 *S 5.319e+00 5.319e+00 
reset I *L 0.000e+00 *S 2.689e-02 2.689e-02 
Din\[7\] I *L 0.000e+00 *S 1.133e-02 1.133e-02 
Din\[6\] I *L 0.000e+00 *S 1.133e-02 1.133e-02 
Din\[5\] I *L 0.000e+00 *S 1.133e-02 1.133e-02 
Din\[4\] I *L 0.000e+00 *S 1.133e-02 1.133e-02 
Din\[3\] I *L 0.000e+00 *S 1.133e-02 1.133e-02 
Din\[2\] I *L 0.000e+00 *S 1.133e-02 1.133e-02 
Din\[1\] I *L 0.000e+00 *S 1.133e-02 1.133e-02 
Din\[0\] I *L 0.000e+00 *S 1.133e-02 1.133e-02 
in_en I *L 0.000e+00 *S 0.000e+00 0.000e+00 
busy O *L 1.000e+00 *S 5.876e-01 4.054e-01 
out_valid O *L 1.000e+00 *S 5.876e-01 4.054e-01 
Dout\[7\] O *L 1.000e+00 *S 5.876e-01 4.054e-01 
Dout\[6\] O *L 1.000e+00 *S 5.876e-01 4.054e-01 
Dout\[5\] O *L 1.000e+00 *S 5.876e-01 4.054e-01 
Dout\[4\] O *L 1.000e+00 *S 5.876e-01 4.054e-01 
Dout\[3\] O *L 1.000e+00 *S 5.876e-01 4.054e-01 
Dout\[2\] O *L 1.000e+00 *S 4.641e-01 3.243e-01 
Dout\[1\] O *L 1.000e+00 *S 5.876e-01 4.054e-01 
Dout\[0\] O *L 1.000e+00 *S 5.876e-01 4.054e-01 

*R_NET clk 5.319e+00
*DRIVER clk
*CELL NULL
*C2_R1_C1 2.659e+00 2.646e-03 2.659e+00 
*LOADS
*RC ram1:CLK 5.270e-07
*RC color_reg\[24\]\[0\]:CK 6.351e-08
*RC color_reg\[45\]\[6\]:CK 6.351e-08
*RC color_reg\[36\]\[5\]:CK 6.351e-08
*RC color_reg\[2\]\[3\]:CK 6.351e-08
*RC color_reg\[27\]\[3\]:CK 6.351e-08
*RC color_reg\[24\]\[5\]:CK 6.351e-08
*RC color_reg\[24\]\[2\]:CK 6.351e-08
*RC colori_reg\[0\]:CK 6.514e-08
*RC halt_reg:CK 6.441e-08
*RC out_valid_reg:CK 7.117e-08
*RC count_reg\[0\]:CK 6.351e-08
*RC color_reg\[6\]\[6\]:CK 6.514e-08
*RC color_reg\[37\]\[6\]:CK 6.514e-08
*RC color_reg\[13\]\[7\]:CK 6.514e-08
*RC color_reg\[24\]\[3\]:CK 6.351e-08
*RC color_reg\[24\]\[6\]:CK 6.351e-08
*RC color_reg\[24\]\[4\]:CK 6.351e-08
*RC color_reg\[24\]\[7\]:CK 6.351e-08
*RC color_reg\[24\]\[1\]:CK 6.351e-08
*RC color_reg\[19\]\[3\]:CK 6.351e-08
*RC color_reg\[17\]\[2\]:CK 6.351e-08
*RC color_reg\[17\]\[0\]:CK 6.351e-08
*RC color_reg\[17\]\[4\]:CK 6.351e-08
*RC color_reg\[45\]\[7\]:CK 6.351e-08
*RC color_reg\[45\]\[1\]:CK 6.351e-08
*RC color_reg\[45\]\[4\]:CK 6.351e-08
*RC color_reg\[45\]\[2\]:CK 6.351e-08
*RC color_reg\[45\]\[5\]:CK 6.351e-08
*RC color_reg\[45\]\[3\]:CK 6.351e-08
*RC color_reg\[17\]\[6\]:CK 6.351e-08
*RC color_reg\[5\]\[6\]:CK 6.351e-08
*RC color_reg\[5\]\[1\]:CK 6.351e-08
*RC color_reg\[17\]\[3\]:CK 6.351e-08
*RC color_reg\[17\]\[7\]:CK 6.351e-08
*RC color_reg\[19\]\[7\]:CK 6.351e-08
*RC color_reg\[36\]\[6\]:CK 6.351e-08
*RC color_reg\[36\]\[3\]:CK 6.351e-08
*RC color_reg\[36\]\[2\]:CK 6.351e-08
*RC color_reg\[36\]\[1\]:CK 6.351e-08
*RC color_reg\[46\]\[6\]:CK 6.351e-08
*RC color_reg\[46\]\[2\]:CK 6.351e-08
*RC color_reg\[46\]\[3\]:CK 6.351e-08
*RC color_reg\[46\]\[7\]:CK 6.351e-08
*RC color_reg\[46\]\[1\]:CK 6.351e-08
*RC color_reg\[18\]\[0\]:CK 6.351e-08
*RC color_reg\[22\]\[0\]:CK 6.351e-08
*RC color_reg\[37\]\[2\]:CK 6.351e-08
*RC color_reg\[37\]\[3\]:CK 6.351e-08
*RC color_reg\[37\]\[5\]:CK 6.351e-08
*RC color_reg\[6\]\[5\]:CK 6.351e-08
*RC color_reg\[6\]\[4\]:CK 6.351e-08
*RC color_reg\[6\]\[3\]:CK 6.351e-08
*RC color_reg\[6\]\[2\]:CK 6.351e-08
*RC color_reg\[6\]\[1\]:CK 6.351e-08
*RC color_reg\[36\]\[0\]:CK 6.351e-08
*RC color_reg\[6\]\[7\]:CK 6.351e-08
*RC color_reg\[37\]\[0\]:CK 6.351e-08
*RC color_reg\[39\]\[0\]:CK 6.351e-08
*RC color_reg\[39\]\[7\]:CK 6.351e-08
*RC color_reg\[39\]\[1\]:CK 6.351e-08
*RC color_reg\[39\]\[6\]:CK 6.351e-08
*RC color_reg\[39\]\[4\]:CK 6.351e-08
*RC color_reg\[39\]\[2\]:CK 6.351e-08
*RC color_reg\[39\]\[5\]:CK 6.351e-08
*RC color_reg\[39\]\[3\]:CK 6.351e-08
*RC color_reg\[40\]\[7\]:CK 6.351e-08
*RC color_reg\[40\]\[1\]:CK 6.351e-08
*RC color_reg\[40\]\[6\]:CK 6.351e-08
*RC color_reg\[40\]\[4\]:CK 6.351e-08
*RC color_reg\[40\]\[2\]:CK 6.351e-08
*RC color_reg\[40\]\[5\]:CK 6.351e-08
*RC color_reg\[40\]\[3\]:CK 6.351e-08
*RC color_reg\[37\]\[1\]:CK 6.351e-08
*RC color_reg\[37\]\[4\]:CK 6.351e-08
*RC color_reg\[37\]\[7\]:CK 6.351e-08
*RC color_reg\[40\]\[0\]:CK 6.351e-08
*RC color_reg\[1\]\[2\]:CK 6.351e-08
*RC color_reg\[1\]\[7\]:CK 6.351e-08
*RC color_reg\[1\]\[4\]:CK 6.351e-08
*RC color_reg\[1\]\[0\]:CK 6.351e-08
*RC color_reg\[38\]\[7\]:CK 6.351e-08
*RC color_reg\[38\]\[6\]:CK 6.351e-08
*RC color_reg\[38\]\[2\]:CK 6.351e-08
*RC winx_reg\[0\]:CK 6.351e-08
*RC count_reg\[1\]:CK 6.351e-08
*RC winx_reg\[6\]:CK 6.351e-08
*RC winx_reg\[5\]:CK 6.351e-08
*RC count_reg\[3\]:CK 6.351e-08
*RC colori_reg\[1\]:CK 6.351e-08
*RC colori_reg\[7\]:CK 6.351e-08
*RC colori_reg\[2\]:CK 6.351e-08
*RC Waddr_reg\[1\]:CK 6.351e-08
*RC posy_reg\[1\]:CK 6.351e-08
*RC colori_reg\[3\]:CK 6.351e-08
*RC winx_reg\[1\]:CK 6.351e-08
*RC winx_reg\[3\]:CK 6.351e-08
*RC state_reg\[0\]:CK 6.351e-08
*RC Raddr_reg\[0\]:CK 6.351e-08
*RC posx_reg\[3\]:CK 6.351e-08
*RC Waddr_reg\[3\]:CK 6.351e-08
*RC posy_reg\[2\]:CK 6.351e-08
*RC Raddr_reg\[1\]:CK 6.351e-08
*RC winx_reg\[2\]:CK 6.351e-08
*RC winx_reg\[4\]:CK 6.351e-08
*RC winx_reg\[8\]:CK 6.351e-08
*RC winx_reg\[7\]:CK 6.351e-08
*RC winx_reg\[9\]:CK 6.351e-08
*RC posx_reg\[5\]:CK 6.351e-08
*RC Raddr_reg\[2\]:CK 6.351e-08
*RC posy_reg\[4\]:CK 6.351e-08
*RC color_reg\[48\]\[7\]:CK 6.351e-08
*RC color_reg\[48\]\[6\]:CK 6.351e-08
*RC color_reg\[48\]\[5\]:CK 6.351e-08
*RC color_reg\[48\]\[4\]:CK 6.351e-08
*RC color_reg\[48\]\[3\]:CK 6.351e-08
*RC color_reg\[48\]\[2\]:CK 6.351e-08
*RC color_reg\[48\]\[1\]:CK 6.351e-08
*RC Raddrmod_reg\[6\]:CK 6.351e-08
*RC color_reg\[38\]\[3\]:CK 6.351e-08
*RC color_reg\[41\]\[5\]:CK 6.351e-08
*RC color_reg\[41\]\[3\]:CK 6.351e-08
*RC color_reg\[17\]\[1\]:CK 6.351e-08
*RC color_reg\[33\]\[7\]:CK 6.351e-08
*RC color_reg\[33\]\[6\]:CK 6.351e-08
*RC color_reg\[16\]\[5\]:CK 6.351e-08
*RC color_reg\[41\]\[7\]:CK 6.351e-08
*RC color_reg\[41\]\[1\]:CK 6.351e-08
*RC color_reg\[41\]\[6\]:CK 6.351e-08
*RC color_reg\[41\]\[4\]:CK 6.351e-08
*RC color_reg\[22\]\[6\]:CK 6.351e-08
*RC color_reg\[22\]\[3\]:CK 6.351e-08
*RC color_reg\[22\]\[2\]:CK 6.351e-08
*RC color_reg\[22\]\[1\]:CK 6.351e-08
*RC color_reg\[42\]\[2\]:CK 6.351e-08
*RC color_reg\[42\]\[5\]:CK 6.351e-08
*RC color_reg\[42\]\[3\]:CK 6.351e-08
*RC color_reg\[33\]\[5\]:CK 6.351e-08
*RC color_reg\[33\]\[4\]:CK 6.351e-08
*RC color_reg\[33\]\[3\]:CK 6.351e-08
*RC color_reg\[33\]\[2\]:CK 6.351e-08
*RC color_reg\[33\]\[1\]:CK 6.351e-08
*RC color_reg\[16\]\[1\]:CK 6.351e-08
*RC color_reg\[5\]\[2\]:CK 6.351e-08
*RC color_reg\[5\]\[5\]:CK 6.351e-08
*RC color_reg\[22\]\[7\]:CK 6.351e-08
*RC color_reg\[19\]\[1\]:CK 6.351e-08
*RC color_reg\[2\]\[2\]:CK 6.351e-08
*RC color_reg\[21\]\[0\]:CK 6.351e-08
*RC color_reg\[2\]\[0\]:CK 6.351e-08
*RC color_reg\[6\]\[0\]:CK 6.351e-08
*RC color_reg\[47\]\[5\]:CK 6.351e-08
*RC color_reg\[11\]\[4\]:CK 6.351e-08
*RC color_reg\[11\]\[3\]:CK 6.351e-08
*RC color_reg\[11\]\[2\]:CK 6.351e-08
*RC posx_reg\[6\]:CK 6.351e-08
*RC color_reg\[11\]\[0\]:CK 6.351e-08
*RC color_reg\[27\]\[0\]:CK 6.351e-08
*RC color_reg\[30\]\[0\]:CK 6.351e-08
*RC color_reg\[27\]\[4\]:CK 6.351e-08
*RC color_reg\[27\]\[2\]:CK 6.351e-08
*RC color_reg\[27\]\[7\]:CK 6.351e-08
*RC color_reg\[27\]\[6\]:CK 6.351e-08
*RC color_reg\[28\]\[5\]:CK 6.351e-08
*RC posy_reg\[5\]:CK 6.351e-08
*RC posx_reg\[7\]:CK 6.351e-08
*RC color_reg\[7\]\[0\]:CK 6.351e-08
*RC color_reg\[31\]\[0\]:CK 6.351e-08
*RC color_reg\[13\]\[5\]:CK 6.351e-08
*RC color_reg\[13\]\[4\]:CK 6.351e-08
*RC color_reg\[13\]\[2\]:CK 6.351e-08
*RC color_reg\[8\]\[2\]:CK 6.351e-08
*RC color_reg\[8\]\[1\]:CK 6.351e-08
*RC color_reg\[8\]\[4\]:CK 6.351e-08
*RC color_reg\[35\]\[0\]:CK 6.351e-08
*RC color_reg\[34\]\[0\]:CK 6.351e-08
*RC color_reg\[13\]\[0\]:CK 6.351e-08
*RC color_reg\[8\]\[0\]:CK 6.351e-08
*RC color_reg\[12\]\[6\]:CK 6.351e-08
*RC color_reg\[9\]\[7\]:CK 6.351e-08
*RC color_reg\[9\]\[6\]:CK 6.351e-08
*RC color_reg\[9\]\[5\]:CK 6.351e-08
*RC posy_reg\[7\]:CK 6.351e-08
*RC Waddr_reg\[7\]:CK 6.351e-08
*RC color_reg\[23\]\[2\]:CK 6.351e-08
*RC color_reg\[25\]\[0\]:CK 6.351e-08
*RC Waddr_reg\[8\]:CK 6.351e-08
*RC color_reg\[25\]\[2\]:CK 6.351e-08
*RC color_reg\[25\]\[3\]:CK 6.351e-08
*RC color_reg\[25\]\[6\]:CK 6.351e-08
*RC color_reg\[25\]\[5\]:CK 6.351e-08
*RC color_reg\[25\]\[7\]:CK 6.351e-08
*RC color_reg\[25\]\[4\]:CK 6.351e-08
*RC color_reg\[23\]\[0\]:CK 6.351e-08
*RC color_reg\[23\]\[3\]:CK 6.351e-08
*RC Waddr_reg\[0\]:CK 6.351e-08
*RC posx_reg\[0\]:CK 6.351e-08
*RC state_reg\[1\]:CK 6.351e-08
*RC posx_reg\[1\]:CK 6.351e-08
*RC count_reg\[2\]:CK 6.351e-08
*RC Waddr_reg\[2\]:CK 6.351e-08
*RC colori_reg\[6\]:CK 6.351e-08
*RC posx_reg\[2\]:CK 6.351e-08
*RC colori_reg\[4\]:CK 6.351e-08
*RC colori_reg\[5\]:CK 6.351e-08
*RC count_reg\[4\]:CK 6.351e-08
*RC count_reg\[5\]:CK 6.351e-08
*RC posx_reg\[4\]:CK 6.351e-08
*RC Waddr_reg\[4\]:CK 6.351e-08
*RC posy_reg\[3\]:CK 6.351e-08
*RC color_reg\[16\]\[7\]:CK 6.351e-08
*RC color_reg\[17\]\[5\]:CK 6.351e-08
*RC color_reg\[16\]\[6\]:CK 6.351e-08
*RC color_reg\[16\]\[4\]:CK 6.351e-08
*RC color_reg\[16\]\[3\]:CK 6.351e-08
*RC color_reg\[16\]\[2\]:CK 6.351e-08
*RC color_reg\[41\]\[2\]:CK 6.351e-08
*RC color_reg\[22\]\[5\]:CK 6.351e-08
*RC color_reg\[22\]\[4\]:CK 6.351e-08
*RC color_reg\[42\]\[6\]:CK 6.351e-08
*RC color_reg\[19\]\[5\]:CK 6.351e-08
*RC color_reg\[19\]\[4\]:CK 6.351e-08
*RC color_reg\[19\]\[2\]:CK 6.351e-08
*RC color_reg\[41\]\[0\]:CK 6.351e-08
*RC color_reg\[19\]\[6\]:CK 6.351e-08
*RC color_reg\[36\]\[7\]:CK 6.351e-08
*RC color_reg\[36\]\[4\]:CK 6.351e-08
*RC color_reg\[42\]\[0\]:CK 6.351e-08
*RC color_reg\[32\]\[0\]:CK 6.351e-08
*RC color_reg\[46\]\[4\]:CK 6.351e-08
*RC color_reg\[46\]\[5\]:CK 6.351e-08
*RC color_reg\[5\]\[0\]:CK 6.351e-08
*RC color_reg\[45\]\[0\]:CK 6.351e-08
*RC color_reg\[38\]\[1\]:CK 6.351e-08
*RC color_reg\[38\]\[4\]:CK 6.351e-08
*RC color_reg\[32\]\[4\]:CK 6.351e-08
*RC color_reg\[32\]\[7\]:CK 6.351e-08
*RC color_reg\[32\]\[6\]:CK 6.351e-08
*RC color_reg\[32\]\[5\]:CK 6.351e-08
*RC color_reg\[43\]\[3\]:CK 6.351e-08
*RC color_reg\[44\]\[1\]:CK 6.351e-08
*RC color_reg\[44\]\[2\]:CK 6.351e-08
*RC color_reg\[18\]\[7\]:CK 6.351e-08
*RC color_reg\[44\]\[7\]:CK 6.351e-08
*RC color_reg\[42\]\[7\]:CK 6.351e-08
*RC color_reg\[4\]\[7\]:CK 6.351e-08
*RC color_reg\[26\]\[0\]:CK 6.351e-08
*RC color_reg\[38\]\[0\]:CK 6.351e-08
*RC color_reg\[33\]\[0\]:CK 6.351e-08
*RC color_reg\[16\]\[0\]:CK 6.351e-08
*RC color_reg\[44\]\[0\]:CK 6.351e-08
*RC color_reg\[19\]\[0\]:CK 6.351e-08
*RC color_reg\[2\]\[4\]:CK 6.351e-08
*RC posy_reg\[0\]:CK 6.351e-08
*RC Waddr_reg\[5\]:CK 6.351e-08
*RC color_reg\[48\]\[0\]:CK 6.351e-08
*RC posy_reg\[6\]:CK 6.351e-08
*RC Raddrmod_reg\[0\]:CK 6.351e-08
*RC Raddrmod_reg\[3\]:CK 6.351e-08
*RC Raddrmod_reg\[8\]:CK 6.351e-08
*RC color_reg\[5\]\[4\]:CK 6.351e-08
*RC Raddrmod_reg\[4\]:CK 6.351e-08
*RC Raddrmod_reg\[9\]:CK 6.351e-08
*RC color_reg\[1\]\[6\]:CK 6.351e-08
*RC Raddrmod_reg\[7\]:CK 6.351e-08
*RC color_reg\[10\]\[0\]:CK 6.351e-08
*RC color_reg\[15\]\[0\]:CK 6.351e-08
*RC color_reg\[9\]\[0\]:CK 6.351e-08
*RC color_reg\[20\]\[0\]:CK 6.351e-08
*RC color_reg\[4\]\[0\]:CK 6.351e-08
*RC color_reg\[3\]\[0\]:CK 6.351e-08
*RC color_reg\[29\]\[0\]:CK 6.351e-08
*RC color_reg\[14\]\[0\]:CK 6.351e-08
*RC color_reg\[12\]\[0\]:CK 6.351e-08
*RC color_reg\[28\]\[0\]:CK 6.351e-08
*RC color_reg\[46\]\[0\]:CK 6.351e-08
*RC color_reg\[31\]\[4\]:CK 6.351e-08
*RC color_reg\[43\]\[0\]:CK 6.351e-08
*RC Raddr_reg\[4\]:CK 6.351e-08
*RC Raddr_reg\[3\]:CK 6.351e-08
*RC Raddr_reg\[5\]:CK 6.351e-08
*RC Waddr_reg\[6\]:CK 6.351e-08
*RC Raddr_reg\[7\]:CK 6.351e-08
*RC Raddr_reg\[9\]:CK 6.351e-08
*RC Raddr_reg\[8\]:CK 6.351e-08
*RC color_reg\[0\]\[7\]:CK 6.351e-08
*RC color_reg\[2\]\[7\]:CK 6.351e-08
*RC color_reg\[3\]\[7\]:CK 6.351e-08
*RC color_reg\[5\]\[7\]:CK 6.351e-08
*RC color_reg\[7\]\[7\]:CK 6.351e-08
*RC color_reg\[8\]\[7\]:CK 6.351e-08
*RC color_reg\[10\]\[7\]:CK 6.351e-08
*RC color_reg\[11\]\[7\]:CK 6.351e-08
*RC color_reg\[47\]\[7\]:CK 6.351e-08
*RC color_reg\[43\]\[7\]:CK 6.351e-08
*RC color_reg\[35\]\[7\]:CK 6.351e-08
*RC color_reg\[34\]\[7\]:CK 6.351e-08
*RC color_reg\[31\]\[7\]:CK 6.351e-08
*RC color_reg\[30\]\[7\]:CK 6.351e-08
*RC color_reg\[29\]\[7\]:CK 6.351e-08
*RC color_reg\[28\]\[7\]:CK 6.351e-08
*RC color_reg\[26\]\[7\]:CK 6.351e-08
*RC color_reg\[23\]\[7\]:CK 6.351e-08
*RC color_reg\[21\]\[7\]:CK 6.351e-08
*RC color_reg\[20\]\[7\]:CK 6.351e-08
*RC color_reg\[15\]\[7\]:CK 6.351e-08
*RC color_reg\[14\]\[7\]:CK 6.351e-08
*RC color_reg\[12\]\[7\]:CK 6.351e-08
*RC color_reg\[0\]\[6\]:CK 6.351e-08
*RC color_reg\[2\]\[6\]:CK 6.351e-08
*RC color_reg\[3\]\[6\]:CK 6.351e-08
*RC color_reg\[4\]\[6\]:CK 6.351e-08
*RC color_reg\[7\]\[6\]:CK 6.351e-08
*RC color_reg\[8\]\[6\]:CK 6.351e-08
*RC color_reg\[10\]\[6\]:CK 6.351e-08
*RC color_reg\[11\]\[6\]:CK 6.351e-08
*RC color_reg\[47\]\[6\]:CK 6.351e-08
*RC color_reg\[44\]\[6\]:CK 6.351e-08
*RC color_reg\[43\]\[6\]:CK 6.351e-08
*RC color_reg\[35\]\[6\]:CK 6.351e-08
*RC color_reg\[34\]\[6\]:CK 6.351e-08
*RC color_reg\[31\]\[6\]:CK 6.351e-08
*RC color_reg\[30\]\[6\]:CK 6.351e-08
*RC color_reg\[29\]\[6\]:CK 6.351e-08
*RC color_reg\[28\]\[6\]:CK 6.351e-08
*RC color_reg\[26\]\[6\]:CK 6.351e-08
*RC color_reg\[23\]\[6\]:CK 6.351e-08
*RC color_reg\[21\]\[6\]:CK 6.351e-08
*RC color_reg\[20\]\[6\]:CK 6.351e-08
*RC color_reg\[18\]\[6\]:CK 6.351e-08
*RC color_reg\[15\]\[6\]:CK 6.351e-08
*RC color_reg\[14\]\[6\]:CK 6.351e-08
*RC color_reg\[13\]\[6\]:CK 6.351e-08
*RC color_reg\[0\]\[5\]:CK 6.351e-08
*RC color_reg\[1\]\[5\]:CK 6.351e-08
*RC color_reg\[2\]\[5\]:CK 6.351e-08
*RC color_reg\[3\]\[5\]:CK 6.351e-08
*RC color_reg\[4\]\[5\]:CK 6.351e-08
*RC color_reg\[7\]\[5\]:CK 6.351e-08
*RC color_reg\[8\]\[5\]:CK 6.351e-08
*RC color_reg\[10\]\[5\]:CK 6.351e-08
*RC color_reg\[11\]\[5\]:CK 6.351e-08
*RC color_reg\[44\]\[5\]:CK 6.351e-08
*RC color_reg\[43\]\[5\]:CK 6.351e-08
*RC color_reg\[38\]\[5\]:CK 6.351e-08
*RC color_reg\[35\]\[5\]:CK 6.351e-08
*RC color_reg\[34\]\[5\]:CK 6.351e-08
*RC color_reg\[31\]\[5\]:CK 6.351e-08
*RC color_reg\[30\]\[5\]:CK 6.351e-08
*RC color_reg\[29\]\[5\]:CK 6.351e-08
*RC color_reg\[27\]\[5\]:CK 6.351e-08
*RC color_reg\[26\]\[5\]:CK 6.351e-08
*RC color_reg\[23\]\[5\]:CK 6.351e-08
*RC color_reg\[21\]\[5\]:CK 6.351e-08
*RC color_reg\[20\]\[5\]:CK 6.351e-08
*RC color_reg\[18\]\[5\]:CK 6.351e-08
*RC color_reg\[15\]\[5\]:CK 6.351e-08
*RC color_reg\[14\]\[5\]:CK 6.351e-08
*RC color_reg\[12\]\[5\]:CK 6.351e-08
*RC color_reg\[0\]\[4\]:CK 6.351e-08
*RC color_reg\[3\]\[4\]:CK 6.351e-08
*RC color_reg\[4\]\[4\]:CK 6.351e-08
*RC color_reg\[7\]\[4\]:CK 6.351e-08
*RC color_reg\[9\]\[4\]:CK 6.351e-08
*RC color_reg\[10\]\[4\]:CK 6.351e-08
*RC color_reg\[47\]\[4\]:CK 6.351e-08
*RC color_reg\[44\]\[4\]:CK 6.351e-08
*RC color_reg\[43\]\[4\]:CK 6.351e-08
*RC color_reg\[42\]\[4\]:CK 6.351e-08
*RC color_reg\[35\]\[4\]:CK 6.351e-08
*RC color_reg\[34\]\[4\]:CK 6.351e-08
*RC color_reg\[30\]\[4\]:CK 6.351e-08
*RC color_reg\[29\]\[4\]:CK 6.351e-08
*RC color_reg\[28\]\[4\]:CK 6.351e-08
*RC color_reg\[26\]\[4\]:CK 6.351e-08
*RC color_reg\[23\]\[4\]:CK 6.351e-08
*RC color_reg\[21\]\[4\]:CK 6.351e-08
*RC color_reg\[20\]\[4\]:CK 6.351e-08
*RC color_reg\[18\]\[4\]:CK 6.351e-08
*RC color_reg\[15\]\[4\]:CK 6.351e-08
*RC color_reg\[14\]\[4\]:CK 6.351e-08
*RC color_reg\[12\]\[4\]:CK 6.351e-08
*RC color_reg\[0\]\[3\]:CK 6.351e-08
*RC color_reg\[1\]\[3\]:CK 6.351e-08
*RC color_reg\[3\]\[3\]:CK 6.351e-08
*RC color_reg\[4\]\[3\]:CK 6.351e-08
*RC color_reg\[5\]\[3\]:CK 6.351e-08
*RC color_reg\[7\]\[3\]:CK 6.351e-08
*RC color_reg\[8\]\[3\]:CK 6.351e-08
*RC color_reg\[9\]\[3\]:CK 6.351e-08
*RC color_reg\[10\]\[3\]:CK 6.351e-08
*RC color_reg\[47\]\[3\]:CK 6.351e-08
*RC color_reg\[44\]\[3\]:CK 6.351e-08
*RC color_reg\[35\]\[3\]:CK 6.351e-08
*RC color_reg\[34\]\[3\]:CK 6.351e-08
*RC color_reg\[32\]\[3\]:CK 6.351e-08
*RC color_reg\[31\]\[3\]:CK 6.351e-08
*RC color_reg\[30\]\[3\]:CK 6.351e-08
*RC color_reg\[29\]\[3\]:CK 6.351e-08
*RC color_reg\[28\]\[3\]:CK 6.351e-08
*RC color_reg\[26\]\[3\]:CK 6.351e-08
*RC color_reg\[21\]\[3\]:CK 6.351e-08
*RC color_reg\[20\]\[3\]:CK 6.351e-08
*RC color_reg\[18\]\[3\]:CK 6.351e-08
*RC color_reg\[15\]\[3\]:CK 6.351e-08
*RC color_reg\[14\]\[3\]:CK 6.351e-08
*RC color_reg\[13\]\[3\]:CK 6.351e-08
*RC color_reg\[12\]\[3\]:CK 6.351e-08
*RC color_reg\[0\]\[2\]:CK 6.351e-08
*RC color_reg\[3\]\[2\]:CK 6.351e-08
*RC color_reg\[4\]\[2\]:CK 6.351e-08
*RC color_reg\[7\]\[2\]:CK 6.351e-08
*RC color_reg\[9\]\[2\]:CK 6.351e-08
*RC color_reg\[10\]\[2\]:CK 6.351e-08
*RC color_reg\[47\]\[2\]:CK 6.351e-08
*RC color_reg\[43\]\[2\]:CK 6.351e-08
*RC color_reg\[35\]\[2\]:CK 6.351e-08
*RC color_reg\[34\]\[2\]:CK 6.351e-08
*RC color_reg\[32\]\[2\]:CK 6.351e-08
*RC color_reg\[31\]\[2\]:CK 6.351e-08
*RC color_reg\[30\]\[2\]:CK 6.351e-08
*RC color_reg\[29\]\[2\]:CK 6.351e-08
*RC color_reg\[28\]\[2\]:CK 6.351e-08
*RC color_reg\[26\]\[2\]:CK 6.351e-08
*RC color_reg\[21\]\[2\]:CK 6.351e-08
*RC color_reg\[20\]\[2\]:CK 6.351e-08
*RC color_reg\[18\]\[2\]:CK 6.351e-08
*RC color_reg\[15\]\[2\]:CK 6.351e-08
*RC color_reg\[14\]\[2\]:CK 6.351e-08
*RC color_reg\[12\]\[2\]:CK 6.351e-08
*RC color_reg\[0\]\[1\]:CK 6.351e-08
*RC color_reg\[1\]\[1\]:CK 6.351e-08
*RC color_reg\[2\]\[1\]:CK 6.351e-08
*RC color_reg\[3\]\[1\]:CK 6.351e-08
*RC color_reg\[4\]\[1\]:CK 6.351e-08
*RC color_reg\[7\]\[1\]:CK 6.351e-08
*RC color_reg\[9\]\[1\]:CK 6.351e-08
*RC color_reg\[10\]\[1\]:CK 6.351e-08
*RC color_reg\[11\]\[1\]:CK 6.351e-08
*RC color_reg\[47\]\[1\]:CK 6.351e-08
*RC color_reg\[43\]\[1\]:CK 6.351e-08
*RC color_reg\[42\]\[1\]:CK 6.351e-08
*RC color_reg\[35\]\[1\]:CK 6.351e-08
*RC color_reg\[34\]\[1\]:CK 6.351e-08
*RC color_reg\[32\]\[1\]:CK 6.351e-08
*RC color_reg\[31\]\[1\]:CK 6.351e-08
*RC color_reg\[30\]\[1\]:CK 6.351e-08
*RC color_reg\[29\]\[1\]:CK 6.351e-08
*RC color_reg\[28\]\[1\]:CK 6.351e-08
*RC color_reg\[27\]\[1\]:CK 6.351e-08
*RC color_reg\[26\]\[1\]:CK 6.351e-08
*RC color_reg\[25\]\[1\]:CK 6.351e-08
*RC color_reg\[23\]\[1\]:CK 6.351e-08
*RC color_reg\[21\]\[1\]:CK 6.351e-08
*RC color_reg\[20\]\[1\]:CK 6.351e-08
*RC color_reg\[18\]\[1\]:CK 6.351e-08
*RC color_reg\[15\]\[1\]:CK 6.351e-08
*RC color_reg\[14\]\[1\]:CK 6.351e-08
*RC color_reg\[13\]\[1\]:CK 6.351e-08
*RC color_reg\[12\]\[1\]:CK 6.351e-08
*RC color_reg\[0\]\[0\]:CK 6.351e-08
*RC color_reg\[47\]\[0\]:CK 6.351e-08
*RC Raddr_reg\[6\]:CK 6.351e-08
*RC Raddrmod_reg\[5\]:CK 6.351e-08
*RC Raddrmod_reg\[2\]:CK 6.351e-08
*RC Raddrmod_reg\[1\]:CK 6.351e-08
*RC Waddr_reg\[9\]:CK 6.351e-08
*END

*R_NET reset 2.689e-02
*DRIVER reset
*CELL NULL
*C2_R1_C1 1.344e-02 5.667e-06 1.344e-02 
*LOADS
*RC U2513:A 1.524e-07
*END

*R_NET Din\[7\] 1.133e-02
*DRIVER Din\[7\]
*CELL NULL
*C2_R1_C1 5.664e-03 5.667e-06 5.664e-03 
*LOADS
*RC U4146:A 6.419e-08
*END

*R_NET Din\[6\] 1.133e-02
*DRIVER Din\[6\]
*CELL NULL
*C2_R1_C1 5.664e-03 5.667e-06 5.664e-03 
*LOADS
*RC U4057:A 6.419e-08
*END

*R_NET Din\[5\] 1.133e-02
*DRIVER Din\[5\]
*CELL NULL
*C2_R1_C1 5.664e-03 5.667e-06 5.664e-03 
*LOADS
*RC U4147:A 6.419e-08
*END

*R_NET Din\[4\] 1.133e-02
*DRIVER Din\[4\]
*CELL NULL
*C2_R1_C1 5.664e-03 5.667e-06 5.664e-03 
*LOADS
*RC U4148:A 6.419e-08
*END

*R_NET Din\[3\] 1.133e-02
*DRIVER Din\[3\]
*CELL NULL
*C2_R1_C1 5.664e-03 5.667e-06 5.664e-03 
*LOADS
*RC U4149:A 6.419e-08
*END

*R_NET Din\[2\] 1.133e-02
*DRIVER Din\[2\]
*CELL NULL
*C2_R1_C1 5.664e-03 5.667e-06 5.664e-03 
*LOADS
*RC U4150:A 6.419e-08
*END

*R_NET Din\[1\] 1.133e-02
*DRIVER Din\[1\]
*CELL NULL
*C2_R1_C1 5.664e-03 5.667e-06 5.664e-03 
*LOADS
*RC U4151:A 6.419e-08
*END

*R_NET Din\[0\] 1.133e-02
*DRIVER Din\[0\]
*CELL NULL
*C2_R1_C1 5.664e-03 5.667e-06 5.664e-03 
*LOADS
*RC U4152:A 6.419e-08
*END

*R_NET out_valid 1.010e+00
*DRIVER U4058:Y
*CELL INVX12
*C2_R1_C1 5.050e-01 5.667e-06 5.050e-01 
*LOADS
*RC out_valid 5.723e-06
*END

*R_NET n4535 4.761e-02
*DRIVER color_reg\[24\]\[7\]:Q
*CELL DFFRX1
*C2_R1_C1 2.380e-02 2.267e-05 2.380e-02 
*LOADS
*RC U3923:B0 6.737e-08
*RC U3922:B0 6.737e-08
*RC U3921:A0 6.765e-08
*RC U3920:B0 6.737e-08
*END

*R_NET n4536 4.762e-02
*DRIVER color_reg\[24\]\[6\]:Q
*CELL DFFRX1
*C2_R1_C1 2.381e-02 2.267e-05 2.381e-02 
*LOADS
*RC U3913:B0 6.737e-08
*RC U3912:B0 6.737e-08
*RC U3911:B0 6.737e-08
*RC U3921:B0 6.776e-08
*END

*R_NET n4537 4.762e-02
*DRIVER color_reg\[24\]\[5\]:Q
*CELL DFFRX1
*C2_R1_C1 2.381e-02 2.267e-05 2.381e-02 
*LOADS
*RC U3121:B0 6.737e-08
*RC U3628:B0 6.737e-08
*RC U3627:B0 6.737e-08
*RC U3916:B0 6.776e-08
*END

*R_NET n4538 4.761e-02
*DRIVER color_reg\[24\]\[4\]:Q
*CELL DFFRX1
*C2_R1_C1 2.380e-02 2.267e-05 2.380e-02 
*LOADS
*RC U3918:B0 6.737e-08
*RC U3917:B0 6.737e-08
*RC U3916:A0 6.765e-08
*RC U3915:B0 6.737e-08
*END

*R_NET n4539 4.843e-02
*DRIVER color_reg\[24\]\[3\]:Q
*CELL DFFRX1
*C2_R1_C1 2.422e-02 2.267e-05 2.422e-02 
*LOADS
*RC U2679:B 7.235e-08
*RC U3907:B0 6.737e-08
*RC U3906:B0 6.737e-08
*RC U3905:B0 6.737e-08
*END

*R_NET n4540 2.326e-02
*DRIVER color_reg\[24\]\[2\]:Q
*CELL DFFRX1
*C2_R1_C1 1.163e-02 5.667e-06 1.163e-02 
*LOADS
*RC U3902:A 1.318e-07
*END

*R_NET n4541 5.912e-02
*DRIVER color_reg\[24\]\[1\]:Q
*CELL DFFRX1
*C2_R1_C1 2.956e-02 2.833e-05 2.956e-02 
*LOADS
*RC U3929:B0 6.737e-08
*RC U3928:B0 6.737e-08
*RC U3927:A 6.646e-08
*RC U3926:A 6.646e-08
*RC U3925:B0 6.737e-08
*END

*R_NET n4542 3.557e-02
*DRIVER color_reg\[24\]\[0\]:Q
*CELL DFFRX1
*C2_R1_C1 1.779e-02 1.700e-05 1.779e-02 
*LOADS
*RC U2865:B0 6.737e-08
*RC U3566:B1 6.683e-08
*RC U3568:B0 6.737e-08
*END

*R_NET Mout\[7\] 1.151e-02
*DRIVER ram1:Q\[7\]
*CELL sram_1024x8_t13
*C2_R1_C1 5.757e-03 5.667e-06 5.757e-03 
*LOADS
*RC U2691:B 6.524e-08
*END

*R_NET Mout\[6\] 1.151e-02
*DRIVER ram1:Q\[6\]
*CELL sram_1024x8_t13
*C2_R1_C1 5.757e-03 5.667e-06 5.757e-03 
*LOADS
*RC U2692:B 6.524e-08
*END

*R_NET Mout\[5\] 1.151e-02
*DRIVER ram1:Q\[5\]
*CELL sram_1024x8_t13
*C2_R1_C1 5.757e-03 5.667e-06 5.757e-03 
*LOADS
*RC U2693:B 6.524e-08
*END

*R_NET Mout\[4\] 1.151e-02
*DRIVER ram1:Q\[4\]
*CELL sram_1024x8_t13
*C2_R1_C1 5.757e-03 5.667e-06 5.757e-03 
*LOADS
*RC U2694:B 6.524e-08
*END

*R_NET Mout\[3\] 1.151e-02
*DRIVER ram1:Q\[3\]
*CELL sram_1024x8_t13
*C2_R1_C1 5.757e-03 5.667e-06 5.757e-03 
*LOADS
*RC U2695:B 6.524e-08
*END

*R_NET Mout\[2\] 1.151e-02
*DRIVER ram1:Q\[2\]
*CELL sram_1024x8_t13
*C2_R1_C1 5.757e-03 5.667e-06 5.757e-03 
*LOADS
*RC U2696:B 6.524e-08
*END

*R_NET Mout\[1\] 1.151e-02
*DRIVER ram1:Q\[1\]
*CELL sram_1024x8_t13
*C2_R1_C1 5.757e-03 5.667e-06 5.757e-03 
*LOADS
*RC U2698:B 6.524e-08
*END

*R_NET Mout\[0\] 1.151e-02
*DRIVER ram1:Q\[0\]
*CELL sram_1024x8_t13
*C2_R1_C1 5.757e-03 5.667e-06 5.757e-03 
*LOADS
*RC U2725:B 6.524e-08
*END

*R_NET addr\[9\] 3.000e-02
*DRIVER U3594:Y
*CELL OAI22X1
*C2_R1_C1 1.500e-02 5.667e-06 1.500e-02 
*LOADS
*RC ram1:A\[9\] 1.700e-07
*END

*R_NET addr\[8\] 3.000e-02
*DRIVER U4089:Y
*CELL OAI2BB2XL
*C2_R1_C1 1.500e-02 5.667e-06 1.500e-02 
*LOADS
*RC ram1:A\[8\] 1.700e-07
*END

*R_NET addr\[7\] 3.000e-02
*DRIVER U4088:Y
*CELL AO22X1
*C2_R1_C1 1.500e-02 5.667e-06 1.500e-02 
*LOADS
*RC ram1:A\[7\] 1.700e-07
*END

*R_NET addr\[6\] 3.000e-02
*DRIVER U3593:Y
*CELL OAI22X1
*C2_R1_C1 1.500e-02 5.667e-06 1.500e-02 
*LOADS
*RC ram1:A\[6\] 1.700e-07
*END

*R_NET addr\[5\] 3.000e-02
*DRIVER U3596:Y
*CELL OAI22X1
*C2_R1_C1 1.500e-02 5.667e-06 1.500e-02 
*LOADS
*RC ram1:A\[5\] 1.700e-07
*END

*R_NET addr\[4\] 3.000e-02
*DRIVER U4090:Y
*CELL OAI2BB2XL
*C2_R1_C1 1.500e-02 5.667e-06 1.500e-02 
*LOADS
*RC ram1:A\[4\] 1.700e-07
*END

*R_NET addr\[3\] 3.000e-02
*DRIVER U3595:Y
*CELL OAI22X1
*C2_R1_C1 1.500e-02 5.667e-06 1.500e-02 
*LOADS
*RC ram1:A\[3\] 1.700e-07
*END

*R_NET addr\[2\] 3.000e-02
*DRIVER U4091:Y
*CELL OAI2BB2XL
*C2_R1_C1 1.500e-02 5.667e-06 1.500e-02 
*LOADS
*RC ram1:A\[2\] 1.700e-07
*END

*R_NET addr\[1\] 3.000e-02
*DRIVER U3835:Y
*CELL OAI22X1
*C2_R1_C1 1.500e-02 5.667e-06 1.500e-02 
*LOADS
*RC ram1:A\[1\] 1.700e-07
*END

*R_NET addr\[0\] 3.000e-02
*DRIVER U4092:Y
*CELL OAI2BB2XL
*C2_R1_C1 1.500e-02 5.667e-06 1.500e-02 
*LOADS
*RC ram1:A\[0\] 1.700e-07
*END

*R_NET Min\[7\] 1.100e-02
*DRIVER U4146:Y
*CELL AND2X1
*C2_R1_C1 5.500e-03 5.667e-06 5.500e-03 
*LOADS
*RC ram1:D\[7\] 6.233e-08
*END

*R_NET Min\[6\] 1.100e-02
*DRIVER U4057:Y
*CELL AND2X1
*C2_R1_C1 5.500e-03 5.667e-06 5.500e-03 
*LOADS
*RC ram1:D\[6\] 6.233e-08
*END

*R_NET Min\[5\] 1.100e-02
*DRIVER U4147:Y
*CELL AND2X1
*C2_R1_C1 5.500e-03 5.667e-06 5.500e-03 
*LOADS
*RC ram1:D\[5\] 6.233e-08
*END

*R_NET Min\[4\] 1.100e-02
*DRIVER U4148:Y
*CELL AND2X1
*C2_R1_C1 5.500e-03 5.667e-06 5.500e-03 
*LOADS
*RC ram1:D\[4\] 6.233e-08
*END

*R_NET Min\[3\] 1.100e-02
*DRIVER U4149:Y
*CELL AND2X1
*C2_R1_C1 5.500e-03 5.667e-06 5.500e-03 
*LOADS
*RC ram1:D\[3\] 6.233e-08
*END

*R_NET Min\[2\] 1.100e-02
*DRIVER U4150:Y
*CELL AND2X1
*C2_R1_C1 5.500e-03 5.667e-06 5.500e-03 
*LOADS
*RC ram1:D\[2\] 6.233e-08
*END

*R_NET Min\[1\] 1.100e-02
*DRIVER U4151:Y
*CELL AND2X1
*C2_R1_C1 5.500e-03 5.667e-06 5.500e-03 
*LOADS
*RC ram1:D\[1\] 6.233e-08
*END

*R_NET Min\[0\] 1.100e-02
*DRIVER U4152:Y
*CELL AND2X1
*C2_R1_C1 5.500e-03 5.667e-06 5.500e-03 
*LOADS
*RC ram1:D\[0\] 6.233e-08
*END

*R_NET Waddr\[9\] 2.404e-02
*DRIVER Waddr_reg\[9\]:Q
*CELL DFFRX1
*C2_R1_C1 1.202e-02 1.133e-05 1.202e-02 
*LOADS
*RC U4069:A 6.857e-08
*RC U4132:A0 6.765e-08
*END

*R_NET Waddr\[8\] 4.670e-02
*DRIVER Waddr_reg\[8\]:Q
*CELL DFFRX1
*C2_R1_C1 2.335e-02 2.267e-05 2.335e-02 
*LOADS
*RC U2657:A 6.738e-08
*RC U4069:B 6.782e-08
*RC U4089:A1N 6.399e-08
*RC U4710:A0N 6.544e-08
*END

*R_NET Waddr\[7\] 6.981e-02
*DRIVER Waddr_reg\[7\]:Q
*CELL DFFRX1
*C2_R1_C1 3.490e-02 3.400e-05 3.490e-02 
*LOADS
*RC U2657:B 6.682e-08
*RC U3579:B 6.541e-08
*RC U3580:A1 6.737e-08
*RC U4026:B 6.479e-08
*RC U4069:C 6.781e-08
*RC U4088:B1 6.338e-08
*END

*R_NET Waddr\[6\] 2.360e-02
*DRIVER Waddr_reg\[6\]:Q
*CELL DFFRX1
*C2_R1_C1 1.180e-02 1.133e-05 1.180e-02 
*LOADS
*RC U2727:A 6.818e-08
*RC U4709:A1N 6.553e-08
*END

*R_NET Waddr\[4\] 4.700e-02
*DRIVER Waddr_reg\[4\]:Q
*CELL DFFRX1
*C2_R1_C1 2.350e-02 2.267e-05 2.350e-02 
*LOADS
*RC U2489:B 7.131e-08
*RC U4068:C 6.707e-08
*RC U4090:A1N 6.399e-08
*RC U4708:A1 6.398e-08
*END

*R_NET Waddr\[3\] 1.189e-02
*DRIVER Waddr_reg\[3\]:Q
*CELL DFFRX1
*C2_R1_C1 5.946e-03 5.667e-06 5.946e-03 
*LOADS
*RC U3973:A 6.738e-08
*END

*R_NET Waddr\[2\] 4.702e-02
*DRIVER Waddr_reg\[2\]:Q
*CELL DFFRX1
*C2_R1_C1 2.351e-02 2.267e-05 2.351e-02 
*LOADS
*RC U2493:B 7.131e-08
*RC U4068:B 6.714e-08
*RC U4091:A1N 6.399e-08
*RC U4707:A1 6.398e-08
*END

*R_NET Waddr\[1\] 1.194e-02
*DRIVER Waddr_reg\[1\]:Q
*CELL DFFRX1
*C2_R1_C1 5.969e-03 5.667e-06 5.969e-03 
*LOADS
*RC U4068:A 6.764e-08
*END

*R_NET Waddr\[0\] 4.580e-02
*DRIVER Waddr_reg\[0\]:Q
*CELL DFFRX1
*C2_R1_C1 2.290e-02 2.267e-05 2.290e-02 
*LOADS
*RC U3847:B 6.524e-08
*RC U4069:D 6.635e-08
*RC U4092:A1N 6.399e-08
*RC U4706:A1 6.398e-08
*END

*R_NET Raddr\[9\] 2.350e-02
*DRIVER Raddr_reg\[9\]:Q
*CELL DFFRX1
*C2_R1_C1 1.175e-02 1.133e-05 1.175e-02 
*LOADS
*RC U2879:B 6.524e-08
*RC U2878:A0 6.793e-08
*END

*R_NET Raddr\[8\] 2.331e-02
*DRIVER Raddr_reg\[8\]:Q
*CELL DFFRX1
*C2_R1_C1 1.166e-02 1.133e-05 1.166e-02 
*LOADS
*RC U2473:A 6.419e-08
*RC U2881:A0 6.793e-08
*END

*R_NET Raddr\[7\] 2.347e-02
*DRIVER Raddr_reg\[7\]:Q
*CELL DFFRX1
*C2_R1_C1 1.174e-02 1.133e-05 1.174e-02 
*LOADS
*RC U4088:A1 6.480e-08
*RC U4660:B 6.822e-08
*END

*R_NET Raddr\[6\] 1.188e-02
*DRIVER Raddr_reg\[6\]:Q
*CELL DFFRX1
*C2_R1_C1 5.941e-03 5.667e-06 5.941e-03 
*LOADS
*RC U3584:A1 6.733e-08
*END

*R_NET Raddr\[5\] 2.447e-02
*DRIVER Raddr_reg\[5\]:Q
*CELL DFFRX1
*C2_R1_C1 1.223e-02 1.133e-05 1.223e-02 
*LOADS
*RC U4187:B 7.131e-08
*RC U4188:A1 6.733e-08
*END

*R_NET Raddr\[4\] 1.188e-02
*DRIVER Raddr_reg\[4\]:Q
*CELL DFFRX1
*C2_R1_C1 5.941e-03 5.667e-06 5.941e-03 
*LOADS
*RC U2871:A1 6.733e-08
*END

*R_NET Raddr\[3\] 2.447e-02
*DRIVER Raddr_reg\[3\]:Q
*CELL DFFRX1
*C2_R1_C1 1.223e-02 1.133e-05 1.223e-02 
*LOADS
*RC U2475:B 7.131e-08
*RC U4172:A1 6.733e-08
*END

*R_NET Raddr\[2\] 1.188e-02
*DRIVER Raddr_reg\[2\]:Q
*CELL DFFRX1
*C2_R1_C1 5.941e-03 5.667e-06 5.941e-03 
*LOADS
*RC U2867:A1 6.733e-08
*END

*R_NET Raddr\[1\] 2.340e-02
*DRIVER Raddr_reg\[1\]:Q
*CELL DFFRX1
*C2_R1_C1 1.170e-02 1.133e-05 1.170e-02 
*LOADS
*RC U2472:B 6.524e-08
*RC U2856:A1 6.733e-08
*END

*R_NET Raddr\[0\] 2.432e-02
*DRIVER Raddr_reg\[0\]:Q
*CELL DFFRX1
*C2_R1_C1 1.216e-02 1.133e-05 1.216e-02 
*LOADS
*RC U2476:B 6.990e-08
*RC U3978:A0 6.793e-08
*END

*R_NET color\[0\]\[7\] 2.414e-02
*DRIVER color_reg\[0\]\[7\]:Q
*CELL DFFRX1
*C2_R1_C1 1.207e-02 1.133e-05 1.207e-02 
*LOADS
*RC U4119:B0 6.859e-08
*RC U4119:A0 6.819e-08
*END

*R_NET color\[0\]\[6\] 1.172e-02
*DRIVER color_reg\[0\]\[6\]:Q
*CELL DFFRX1
*C2_R1_C1 5.862e-03 5.667e-06 5.862e-03 
*LOADS
*RC U3975:A 6.644e-08
*END

*R_NET color\[0\]\[5\] 2.366e-02
*DRIVER color_reg\[0\]\[5\]:Q
*CELL DFFRX1
*C2_R1_C1 1.183e-02 1.133e-05 1.183e-02 
*LOADS
*RC U3051:A 6.644e-08
*RC U4117:A0 6.765e-08
*END

*R_NET color\[0\]\[4\] 1.196e-02
*DRIVER color_reg\[0\]\[4\]:Q
*CELL DFFRX1
*C2_R1_C1 5.979e-03 5.667e-06 5.979e-03 
*LOADS
*RC U4115:B0 6.776e-08
*END

*R_NET color\[0\]\[3\] 2.366e-02
*DRIVER color_reg\[0\]\[3\]:Q
*CELL DFFRX1
*C2_R1_C1 1.183e-02 1.133e-05 1.183e-02 
*LOADS
*RC U3226:A 6.644e-08
*RC U4115:A0 6.765e-08
*END

*R_NET color\[0\]\[2\] 2.472e-02
*DRIVER color_reg\[0\]\[2\]:Q
*CELL DFFRX1
*C2_R1_C1 1.236e-02 1.133e-05 1.236e-02 
*LOADS
*RC U4113:B0 7.266e-08
*RC U4114:A1 6.743e-08
*END

*R_NET color\[0\]\[1\] 2.364e-02
*DRIVER color_reg\[0\]\[1\]:Q
*CELL DFFRX1
*C2_R1_C1 1.182e-02 1.133e-05 1.182e-02 
*LOADS
*RC U4013:A 6.644e-08
*RC U4114:B1 6.751e-08
*END

*R_NET color\[0\]\[0\] 1.189e-02
*DRIVER color_reg\[0\]\[0\]:Q
*CELL DFFRX1
*C2_R1_C1 5.943e-03 5.667e-06 5.943e-03 
*LOADS
*RC U4114:C1 6.735e-08
*END

*R_NET color\[1\]\[7\] 3.649e-02
*DRIVER color_reg\[1\]\[7\]:Q
*CELL DFFRX1
*C2_R1_C1 1.824e-02 1.700e-05 1.824e-02 
*LOADS
*RC U2886:A 6.644e-08
*RC U4429:A0 6.765e-08
*RC U4435:B0 7.266e-08
*END
